McPAT (version 1.0 of Aug, 2013) is computing the target processor...
 

McPAT (version 1.0 of Aug, 2013) results  (current print level is 5)
*****************************************************************************************
  Technology 28 nm
  Using Long Channel Devices When Appropriate
  Interconnect metal projection= aggressive interconnect technology projection
  Core clock Rate(MHz) 2660

*****************************************************************************************
Processor: 
  Area = 63.0804 mm^2
  Peak Power = 55.7707 W
  Total Leakage = 5.94312 W
  Peak Dynamic = 49.8275 W
  Subthreshold Leakage = 4.96364 W
  Subthreshold Leakage with power gating = 2.79921 W
  Gate Leakage = 0.979489 W
  Runtime Dynamic = 14.5164 W

  Total Cores: 4 cores 
  Device Type= ITRS high performance device type
    Area = 46.0967 mm^2
    Peak Dynamic = 49.4783 W
    Subthreshold Leakage = 4.15138 W
    Subthreshold Leakage with power gating = 2.2308 W
    Gate Leakage = 0.928234 W
    Runtime Dynamic = 14.3246 W

  Total L2s: 
  Device Type= ITRS high performance device type
    Area = 16.7284 mm^2
    Peak Dynamic = 0.349238 W
    Subthreshold Leakage = 0.794118 W
    Subthreshold Leakage with power gating = 0.500649 W
    Gate Leakage = 0.0453968 W
    Runtime Dynamic = 0.191832 W

  Total NoCs (Network/Bus): 
  Device Type= ITRS high performance device type
    Area = 0.25535 mm^2
    Peak Dynamic = 0 W
    Subthreshold Leakage = 0.0181407 W
    Subthreshold Leakage with power gating = 0.00952386 W
    Gate Leakage = 0.00585779 W
    Runtime Dynamic = 0 W

*****************************************************************************************
Core:
      Area = 11.5242 mm^2
      Peak Dynamic = 8.76306 W
      Subthreshold Leakage = 1.03784 W
      Subthreshold Leakage with power gating = 0.5577 W
      Gate Leakage = 0.232058 W
      Runtime Dynamic = 1.54296 W

      Instruction Fetch Unit:
        Area = 2.31157 mm^2
        Peak Dynamic = 2.10475 W
        Subthreshold Leakage = 0.201207 W
        Subthreshold Leakage with power gating = 0.112052 W
        Gate Leakage = 0.0440334 W
        Runtime Dynamic = 0.121257 W

          Instruction Cache:
            Area = 1.22592 mm^2
            Peak Dynamic = 1.04954 W
            Subthreshold Leakage = 0.0864778 W
            Subthreshold Leakage with power gating = 0.0489618 W
            Gate Leakage = 0.0234788 W
            Runtime Dynamic = 0.0578363 W

          Branch Target Buffer:
            Area = 0.301471 mm^2
            Peak Dynamic = 0.0940176 W
            Subthreshold Leakage = 0.0193955 W
            Subthreshold Leakage with power gating = 0.0124876 W
            Gate Leakage = 0.00296931 W
            Runtime Dynamic = 0.00484831 W

          Branch Predictor:
            Area = 0.0511729 mm^2
            Peak Dynamic = 0.030293 W
            Subthreshold Leakage = 0.0041914 W
            Subthreshold Leakage with power gating = 0.00272474 W
            Gate Leakage = 0.000542871 W
            Runtime Dynamic = 0.00160493 W

              Global Predictor:
                Area = 0.0163986 mm^2
                Peak Dynamic = 0.00855795 W
                Subthreshold Leakage = 0.00159351 W
                Subthreshold Leakage with power gating = 0.0010355 W
                Gate Leakage = 0.000198698 W
                Runtime Dynamic = 0.000480769 W

              Local Predictor:
              L1_Local Predictor:
                Area = 0.00951851 mm^2
                Peak Dynamic = 0.0071349 W
                Subthreshold Leakage = 0.000809103 W
                Subthreshold Leakage with power gating = 0.000525292 W
                Gate Leakage = 0.000112139 W
                Runtime Dynamic = 0.000413586 W

              L2_Local Predictor:
                Area = 0.00492513 mm^2
                Peak Dynamic = 0.00363767 W
                Subthreshold Leakage = 0.000410102 W
                Subthreshold Leakage with power gating = 0.000265575 W
                Gate Leakage = 5.89842e-05 W
                Runtime Dynamic = 0.00021088 W

              Chooser:
                Area = 0.0163986 mm^2
                Peak Dynamic = 0.00855795 W
                Subthreshold Leakage = 0.00159351 W
                Subthreshold Leakage with power gating = 0.0010355 W
                Gate Leakage = 0.000198698 W
                Runtime Dynamic = 0.000480769 W

              RAS:
                Area = 0.00393205 mm^2
                Peak Dynamic = 0.00604223 W
                Subthreshold Leakage = 0.000195279 W
                Subthreshold Leakage with power gating = 0.000128442 W
                Gate Leakage = 3.33361e-05 W
                Runtime Dynamic = 0.000229809 W

          Instruction Buffer:
            Area = 0.00797765 mm^2
            Peak Dynamic = 0.326566 W
            Subthreshold Leakage = 0.00033082 W
            Subthreshold Leakage with power gating = 0.000201727 W
            Gate Leakage = 5.13934e-05 W
            Runtime Dynamic = 0.0158661 W

          Instruction Decoder:
            Area = 0.707577 mm^2
            Peak Dynamic = 0.563985 W
            Subthreshold Leakage = 0.0867078 W
            Subthreshold Leakage with power gating = 0.0455216 W
            Gate Leakage = 0.0146921 W
            Runtime Dynamic = 0.0411015 W

      Renaming Unit:
        Area = 0.143312 mm^2
        Peak Dynamic = 2.40461 W
        Subthreshold Leakage = 0.0163445 W
        Subthreshold Leakage with power gating = 0.00914191 W
        Gate Leakage = 0.00667097 W
        Runtime Dynamic = 0.0320907 W

          Int Front End RAT:
            Area = 0.044715 mm^2
            Peak Dynamic = 0.420001 W
            Subthreshold Leakage = 0.00138855 W
            Subthreshold Leakage with power gating = 0.000791473 W
            Gate Leakage = 0.000294553 W
            Runtime Dynamic = 0.029062 W

          FP Front End RAT:
            Area = 0.0652313 mm^2
            Peak Dynamic = 1.82541 W
            Subthreshold Leakage = 0.0107119 W
            Subthreshold Leakage with power gating = 0.00610576 W
            Gate Leakage = 0.00404879 W
            Runtime Dynamic = 0 W

          Free List:
            Area = 0.0159228 mm^2
            Peak Dynamic = 0.0207794 W
            Subthreshold Leakage = 0.000139843 W
            Subthreshold Leakage with power gating = 8.99692e-05 W
            Gate Leakage = 2.87151e-05 W
            Runtime Dynamic = 0.00302868 W

      Load Store Unit:
        Area = 2.93072 mm^2
        Peak Dynamic = 1.3086 W
        Subthreshold Leakage = 0.127337 W
        Subthreshold Leakage with power gating = 0.0710611 W
        Gate Leakage = 0.0247181 W
        Runtime Dynamic = 0.331933 W

          Data Cache:
            Area = 2.33788 mm^2
            Peak Dynamic = 1.25121 W
            Subthreshold Leakage = 0.117977 W
            Subthreshold Leakage with power gating = 0.0659108 W
            Gate Leakage = 0.021324 W
            Runtime Dynamic = 0.269757 W

          LoadQ:
            Area = 0.033143 mm^2
            Peak Dynamic = 0.0173689 W
            Subthreshold Leakage = 0.00220405 W
            Subthreshold Leakage with power gating = 0.00125631 W
            Gate Leakage = 0.000474856 W
            Runtime Dynamic = 0.0173689 W

          StoreQ:
            Area = 0.0396596 mm^2
            Peak Dynamic = 0.0224037 W
            Subthreshold Leakage = 0.00305145 W
            Subthreshold Leakage with power gating = 0.00173933 W
            Gate Leakage = 0.000620374 W
            Runtime Dynamic = 0.0448074 W

      Memory Management Unit:
        Area = 0.0771274 mm^2
        Peak Dynamic = 0.110609 W
        Subthreshold Leakage = 0.00959892 W
        Subthreshold Leakage with power gating = 0.00528669 W
        Gate Leakage = 0.00337874 W
        Runtime Dynamic = 0.0169399 W

          Itlb:
            Area = 0.024606 mm^2
            Peak Dynamic = 0.0185423 W
            Subthreshold Leakage = 0.00211707 W
            Subthreshold Leakage with power gating = 0.00120673 W
            Gate Leakage = 0.00042452 W
            Runtime Dynamic = 0.00270625 W

          Dtlb:
            Area = 0.0350782 mm^2
            Peak Dynamic = 0.0140442 W
            Subthreshold Leakage = 0.00337764 W
            Subthreshold Leakage with power gating = 0.00192525 W
            Gate Leakage = 0.000655306 W
            Runtime Dynamic = 0.0142337 W

      Execution Unit:
        Area = 3.35308 mm^2
        Peak Dynamic = 2.83448 W
        Subthreshold Leakage = 0.304565 W
        Subthreshold Leakage with power gating = 0.161292 W
        Gate Leakage = 0.0689468 W
        Runtime Dynamic = 1.04074 W

          Register Files:
            Area = 0.221264 mm^2
            Peak Dynamic = 0.016759 W
            Subthreshold Leakage = 0.002443 W
            Subthreshold Leakage with power gating = 0.00131334 W
            Gate Leakage = 0.000507924 W
            Runtime Dynamic = 0.0194219 W

              Integer RF:
                Area = 0.139576 mm^2
                Peak Dynamic = 0.016759 W
                Subthreshold Leakage = 0.00148669 W
                Subthreshold Leakage with power gating = 0.000792295 W
                Gate Leakage = 0.000320781 W
                Runtime Dynamic = 0.0171398 W

              Floating Point RF:
                Area = 0.0816879 mm^2
                Peak Dynamic = 0 W
                Subthreshold Leakage = 0.000956315 W
                Subthreshold Leakage with power gating = 0.000521046 W
                Gate Leakage = 0.000187143 W
                Runtime Dynamic = 0.00228213 W

          Instruction Scheduler:
            Area = 0.855834 mm^2
            Peak Dynamic = 2.70027 W
            Subthreshold Leakage = 0.0280724 W
            Subthreshold Leakage with power gating = 0.0161029 W
            Gate Leakage = 0.00605602 W
            Runtime Dynamic = 0.246221 W

              Instruction Window:
                Area = 0.400666 mm^2
                Peak Dynamic = 1.15699 W
                Subthreshold Leakage = 0.0198733 W
                Subthreshold Leakage with power gating = 0.0113244 W
                Gate Leakage = 0.00443242 W
                Runtime Dynamic = 0.110359 W

              FP Instruction Window:
                Area = 0.128984 mm^2
                Peak Dynamic = 0.677218 W
                Subthreshold Leakage = 0.0042138 W
                Subthreshold Leakage with power gating = 0.00239847 W
                Gate Leakage = 0.000959985 W
                Runtime Dynamic = 0.0641857 W

              ROB:
                Area = 0.326184 mm^2
                Peak Dynamic = 0.866056 W
                Subthreshold Leakage = 0.0039853 W
                Subthreshold Leakage with power gating = 0.00238003 W
                Gate Leakage = 0.000663617 W
                Runtime Dynamic = 0.0716765 W

          Integer ALUs (Count: 6 ):
            Area = 0.290056 mm^2
            Peak Dynamic = 0.0709363 W
            Subthreshold Leakage = 0.0811344 W
            Subthreshold Leakage with power gating = 0.0425956 W
            Gate Leakage = 0.0180587 W
            Runtime Dynamic = 0.162918 W

          Floating Point Units (FPUs) (Count: 2 ):
            Area = 1.80359 mm^2
            Peak Dynamic = 0 W
            Subthreshold Leakage = 0.126125 W
            Subthreshold Leakage with power gating = 0.0662155 W
            Gate Leakage = 0.0280725 W
            Runtime Dynamic = 0.29864 W

          Complex ALUs (Mul/Div) (Count: 1 ):
            Area = 0.145028 mm^2
            Peak Dynamic = 0 W
            Subthreshold Leakage = 0.0405672 W
            Subthreshold Leakage with power gating = 0.0212978 W
            Gate Leakage = 0.00902936 W
            Runtime Dynamic = 0.199093 W

          Results Broadcast Bus:
            Area Overhead = 0.0198659 mm^2
            Peak Dynamic = 0.0397922 W
            Subthreshold Leakage = 0.0221195 W
            Subthreshold Leakage with power gating = 0.0116127 W
            Gate Leakage = 0.0049233 W
            Runtime Dynamic = 0.11445 W

*****************************************************************************************
Core:
      Area = 11.5242 mm^2
      Peak Dynamic = 13.7324 W
      Subthreshold Leakage = 1.03784 W
      Subthreshold Leakage with power gating = 0.5577 W
      Gate Leakage = 0.232058 W
      Runtime Dynamic = 4.6301 W

      Instruction Fetch Unit:
        Area = 2.31157 mm^2
        Peak Dynamic = 4.75366 W
        Subthreshold Leakage = 0.201207 W
        Subthreshold Leakage with power gating = 0.112052 W
        Gate Leakage = 0.0440334 W
        Runtime Dynamic = 0.495585 W

          Instruction Cache:
            Area = 1.22592 mm^2
            Peak Dynamic = 3.60037 W
            Subthreshold Leakage = 0.0864778 W
            Subthreshold Leakage with power gating = 0.0489618 W
            Gate Leakage = 0.0234788 W
            Runtime Dynamic = 0.224481 W

          Branch Target Buffer:
            Area = 0.301471 mm^2
            Peak Dynamic = 0.0940176 W
            Subthreshold Leakage = 0.0193955 W
            Subthreshold Leakage with power gating = 0.0124876 W
            Gate Leakage = 0.00296931 W
            Runtime Dynamic = 0.00737909 W

          Branch Predictor:
            Area = 0.0511729 mm^2
            Peak Dynamic = 0.030293 W
            Subthreshold Leakage = 0.0041914 W
            Subthreshold Leakage with power gating = 0.00272474 W
            Gate Leakage = 0.000542871 W
            Runtime Dynamic = 0.00320568 W

              Global Predictor:
                Area = 0.0163986 mm^2
                Peak Dynamic = 0.00855795 W
                Subthreshold Leakage = 0.00159351 W
                Subthreshold Leakage with power gating = 0.0010355 W
                Gate Leakage = 0.000198698 W
                Runtime Dynamic = 0.000751306 W

              Local Predictor:
              L1_Local Predictor:
                Area = 0.00951851 mm^2
                Peak Dynamic = 0.0071349 W
                Subthreshold Leakage = 0.000809103 W
                Subthreshold Leakage with power gating = 0.000525292 W
                Gate Leakage = 0.000112139 W
                Runtime Dynamic = 0.000652132 W

              L2_Local Predictor:
                Area = 0.00492513 mm^2
                Peak Dynamic = 0.00363767 W
                Subthreshold Leakage = 0.000410102 W
                Subthreshold Leakage with power gating = 0.000265575 W
                Gate Leakage = 5.89842e-05 W
                Runtime Dynamic = 0.000332517 W

              Chooser:
                Area = 0.0163986 mm^2
                Peak Dynamic = 0.00855795 W
                Subthreshold Leakage = 0.00159351 W
                Subthreshold Leakage with power gating = 0.0010355 W
                Gate Leakage = 0.000198698 W
                Runtime Dynamic = 0.000751306 W

              RAS:
                Area = 0.00393205 mm^2
                Peak Dynamic = 0.00604223 W
                Subthreshold Leakage = 0.000195279 W
                Subthreshold Leakage with power gating = 0.000128442 W
                Gate Leakage = 3.33361e-05 W
                Runtime Dynamic = 0.00105094 W

          Instruction Buffer:
            Area = 0.00797765 mm^2
            Peak Dynamic = 0.326566 W
            Subthreshold Leakage = 0.00033082 W
            Subthreshold Leakage with power gating = 0.000201727 W
            Gate Leakage = 5.13934e-05 W
            Runtime Dynamic = 0.0725572 W

          Instruction Decoder:
            Area = 0.707577 mm^2
            Peak Dynamic = 0.563985 W
            Subthreshold Leakage = 0.0867078 W
            Subthreshold Leakage with power gating = 0.0455216 W
            Gate Leakage = 0.0146921 W
            Runtime Dynamic = 0.187962 W

      Renaming Unit:
        Area = 0.143312 mm^2
        Peak Dynamic = 2.40461 W
        Subthreshold Leakage = 0.0163445 W
        Subthreshold Leakage with power gating = 0.00914191 W
        Gate Leakage = 0.00667097 W
        Runtime Dynamic = 0.151496 W

          Int Front End RAT:
            Area = 0.044715 mm^2
            Peak Dynamic = 0.420001 W
            Subthreshold Leakage = 0.00138855 W
            Subthreshold Leakage with power gating = 0.000791473 W
            Gate Leakage = 0.000294553 W
            Runtime Dynamic = 0.137621 W

          FP Front End RAT:
            Area = 0.0652313 mm^2
            Peak Dynamic = 1.82541 W
            Subthreshold Leakage = 0.0107119 W
            Subthreshold Leakage with power gating = 0.00610576 W
            Gate Leakage = 0.00404879 W
            Runtime Dynamic = 2.41614e-05 W

          Free List:
            Area = 0.0159228 mm^2
            Peak Dynamic = 0.0207794 W
            Subthreshold Leakage = 0.000139843 W
            Subthreshold Leakage with power gating = 8.99692e-05 W
            Gate Leakage = 2.87151e-05 W
            Runtime Dynamic = 0.0138508 W

      Load Store Unit:
        Area = 2.93072 mm^2
        Peak Dynamic = 3.03932 W
        Subthreshold Leakage = 0.127337 W
        Subthreshold Leakage with power gating = 0.0710611 W
        Gate Leakage = 0.0247181 W
        Runtime Dynamic = 1.25901 W

          Data Cache:
            Area = 2.33788 mm^2
            Peak Dynamic = 2.81849 W
            Subthreshold Leakage = 0.117977 W
            Subthreshold Leakage with power gating = 0.0659108 W
            Gate Leakage = 0.021324 W
            Runtime Dynamic = 1.01978 W

          LoadQ:
            Area = 0.033143 mm^2
            Peak Dynamic = 0.0668301 W
            Subthreshold Leakage = 0.00220405 W
            Subthreshold Leakage with power gating = 0.00125631 W
            Gate Leakage = 0.000474856 W
            Runtime Dynamic = 0.0668301 W

          StoreQ:
            Area = 0.0396596 mm^2
            Peak Dynamic = 0.0862026 W
            Subthreshold Leakage = 0.00305145 W
            Subthreshold Leakage with power gating = 0.00173933 W
            Gate Leakage = 0.000620374 W
            Runtime Dynamic = 0.172405 W

      Memory Management Unit:
        Area = 0.0771274 mm^2
        Peak Dynamic = 0.220758 W
        Subthreshold Leakage = 0.00959892 W
        Subthreshold Leakage with power gating = 0.00528669 W
        Gate Leakage = 0.00337874 W
        Runtime Dynamic = 0.0633366 W

          Itlb:
            Area = 0.024606 mm^2
            Peak Dynamic = 0.0636083 W
            Subthreshold Leakage = 0.00211707 W
            Subthreshold Leakage with power gating = 0.00120673 W
            Gate Leakage = 0.00042452 W
            Runtime Dynamic = 0.00870866 W

          Dtlb:
            Area = 0.0350782 mm^2
            Peak Dynamic = 0.0540375 W
            Subthreshold Leakage = 0.00337764 W
            Subthreshold Leakage with power gating = 0.00192525 W
            Gate Leakage = 0.000655306 W
            Runtime Dynamic = 0.0546279 W

      Execution Unit:
        Area = 3.35308 mm^2
        Peak Dynamic = 3.31407 W
        Subthreshold Leakage = 0.304565 W
        Subthreshold Leakage with power gating = 0.161292 W
        Gate Leakage = 0.0689468 W
        Runtime Dynamic = 2.66067 W

          Register Files:
            Area = 0.221264 mm^2
            Peak Dynamic = 0.0766455 W
            Subthreshold Leakage = 0.002443 W
            Subthreshold Leakage with power gating = 0.00131334 W
            Gate Leakage = 0.000507924 W
            Runtime Dynamic = 0.0888185 W

              Integer RF:
                Area = 0.139576 mm^2
                Peak Dynamic = 0.0766387 W
                Subthreshold Leakage = 0.00148669 W
                Subthreshold Leakage with power gating = 0.000792295 W
                Gate Leakage = 0.000320781 W
                Runtime Dynamic = 0.0783821 W

              Floating Point RF:
                Area = 0.0816879 mm^2
                Peak Dynamic = 6.83916e-06 W
                Subthreshold Leakage = 0.000956315 W
                Subthreshold Leakage with power gating = 0.000521046 W
                Gate Leakage = 0.000187143 W
                Runtime Dynamic = 0.0104364 W

          Instruction Scheduler:
            Area = 0.855834 mm^2
            Peak Dynamic = 2.70027 W
            Subthreshold Leakage = 0.0280724 W
            Subthreshold Leakage with power gating = 0.0161029 W
            Gate Leakage = 0.00605602 W
            Runtime Dynamic = 1.10956 W

              Instruction Window:
                Area = 0.400666 mm^2
                Peak Dynamic = 1.15699 W
                Subthreshold Leakage = 0.0198733 W
                Subthreshold Leakage with power gating = 0.0113244 W
                Gate Leakage = 0.00443242 W
                Runtime Dynamic = 0.504683 W

              FP Instruction Window:
                Area = 0.128984 mm^2
                Peak Dynamic = 0.677218 W
                Subthreshold Leakage = 0.0042138 W
                Subthreshold Leakage with power gating = 0.00239847 W
                Gate Leakage = 0.000959985 W
                Runtime Dynamic = 0.293528 W

              ROB:
                Area = 0.326184 mm^2
                Peak Dynamic = 0.866056 W
                Subthreshold Leakage = 0.0039853 W
                Subthreshold Leakage with power gating = 0.00238003 W
                Gate Leakage = 0.000663617 W
                Runtime Dynamic = 0.311346 W

          Integer ALUs (Count: 6 ):
            Area = 0.290056 mm^2
            Peak Dynamic = 0.32439 W
            Subthreshold Leakage = 0.0811344 W
            Subthreshold Leakage with power gating = 0.0425956 W
            Gate Leakage = 0.0180587 W
            Runtime Dynamic = 0.407809 W

          Floating Point Units (FPUs) (Count: 2 ):
            Area = 1.80359 mm^2
            Peak Dynamic = 4.31376e-05 W
            Subthreshold Leakage = 0.126125 W
            Subthreshold Leakage with power gating = 0.0662155 W
            Gate Leakage = 0.0280725 W
            Runtime Dynamic = 0.298658 W

          Complex ALUs (Mul/Div) (Count: 1 ):
            Area = 0.145028 mm^2
            Peak Dynamic = 0 W
            Subthreshold Leakage = 0.0405672 W
            Subthreshold Leakage with power gating = 0.0212978 W
            Gate Leakage = 0.00902936 W
            Runtime Dynamic = 0.199093 W

          Results Broadcast Bus:
            Area Overhead = 0.0198659 mm^2
            Peak Dynamic = 0.181969 W
            Subthreshold Leakage = 0.0221195 W
            Subthreshold Leakage with power gating = 0.0116127 W
            Gate Leakage = 0.0049233 W
            Runtime Dynamic = 0.556736 W

*****************************************************************************************
Core:
      Area = 11.5242 mm^2
      Peak Dynamic = 14.3736 W
      Subthreshold Leakage = 1.03784 W
      Subthreshold Leakage with power gating = 0.5577 W
      Gate Leakage = 0.232058 W
      Runtime Dynamic = 4.65257 W

      Instruction Fetch Unit:
        Area = 2.31157 mm^2
        Peak Dynamic = 4.75366 W
        Subthreshold Leakage = 0.201207 W
        Subthreshold Leakage with power gating = 0.112052 W
        Gate Leakage = 0.0440334 W
        Runtime Dynamic = 0.462106 W

          Instruction Cache:
            Area = 1.22592 mm^2
            Peak Dynamic = 3.60037 W
            Subthreshold Leakage = 0.0864778 W
            Subthreshold Leakage with power gating = 0.0489618 W
            Gate Leakage = 0.0234788 W
            Runtime Dynamic = 0.213509 W

          Branch Target Buffer:
            Area = 0.301471 mm^2
            Peak Dynamic = 0.0940176 W
            Subthreshold Leakage = 0.0193955 W
            Subthreshold Leakage with power gating = 0.0124876 W
            Gate Leakage = 0.00296931 W
            Runtime Dynamic = 0.0272748 W

          Branch Predictor:
            Area = 0.0511729 mm^2
            Peak Dynamic = 0.030293 W
            Subthreshold Leakage = 0.0041914 W
            Subthreshold Leakage with power gating = 0.00272474 W
            Gate Leakage = 0.000542871 W
            Runtime Dynamic = 0.00857132 W

              Global Predictor:
                Area = 0.0163986 mm^2
                Peak Dynamic = 0.00855795 W
                Subthreshold Leakage = 0.00159351 W
                Subthreshold Leakage with power gating = 0.0010355 W
                Gate Leakage = 0.000198698 W
                Runtime Dynamic = 0.00269739 W

              Local Predictor:
              L1_Local Predictor:
                Area = 0.00951851 mm^2
                Peak Dynamic = 0.0071349 W
                Subthreshold Leakage = 0.000809103 W
                Subthreshold Leakage with power gating = 0.000525292 W
                Gate Leakage = 0.000112139 W
                Runtime Dynamic = 0.0023183 W

              L2_Local Predictor:
                Area = 0.00492513 mm^2
                Peak Dynamic = 0.00363767 W
                Subthreshold Leakage = 0.000410102 W
                Subthreshold Leakage with power gating = 0.000265575 W
                Gate Leakage = 5.89842e-05 W
                Runtime Dynamic = 0.00118206 W

              Chooser:
                Area = 0.0163986 mm^2
                Peak Dynamic = 0.00855795 W
                Subthreshold Leakage = 0.00159351 W
                Subthreshold Leakage with power gating = 0.0010355 W
                Gate Leakage = 0.000198698 W
                Runtime Dynamic = 0.00269739 W

              RAS:
                Area = 0.00393205 mm^2
                Peak Dynamic = 0.00604223 W
                Subthreshold Leakage = 0.000195279 W
                Subthreshold Leakage with power gating = 0.000128442 W
                Gate Leakage = 3.33361e-05 W
                Runtime Dynamic = 0.000858243 W

          Instruction Buffer:
            Area = 0.00797765 mm^2
            Peak Dynamic = 0.326566 W
            Subthreshold Leakage = 0.00033082 W
            Subthreshold Leakage with power gating = 0.000201727 W
            Gate Leakage = 5.13934e-05 W
            Runtime Dynamic = 0.0592534 W

          Instruction Decoder:
            Area = 0.707577 mm^2
            Peak Dynamic = 0.563985 W
            Subthreshold Leakage = 0.0867078 W
            Subthreshold Leakage with power gating = 0.0455216 W
            Gate Leakage = 0.0146921 W
            Runtime Dynamic = 0.153498 W

      Renaming Unit:
        Area = 0.143312 mm^2
        Peak Dynamic = 2.40461 W
        Subthreshold Leakage = 0.0163445 W
        Subthreshold Leakage with power gating = 0.00914191 W
        Gate Leakage = 0.00667097 W
        Runtime Dynamic = 0.116922 W

          Int Front End RAT:
            Area = 0.044715 mm^2
            Peak Dynamic = 0.420001 W
            Subthreshold Leakage = 0.00138855 W
            Subthreshold Leakage with power gating = 0.000791473 W
            Gate Leakage = 0.000294553 W
            Runtime Dynamic = 0.105611 W

          FP Front End RAT:
            Area = 0.0652313 mm^2
            Peak Dynamic = 1.82541 W
            Subthreshold Leakage = 0.0107119 W
            Subthreshold Leakage with power gating = 0.00610576 W
            Gate Leakage = 0.00404879 W
            Runtime Dynamic = 1.31664e-09 W

          Free List:
            Area = 0.0159228 mm^2
            Peak Dynamic = 0.0207794 W
            Subthreshold Leakage = 0.000139843 W
            Subthreshold Leakage with power gating = 8.99692e-05 W
            Gate Leakage = 2.87151e-05 W
            Runtime Dynamic = 0.0113109 W

      Load Store Unit:
        Area = 2.93072 mm^2
        Peak Dynamic = 3.76576 W
        Subthreshold Leakage = 0.127337 W
        Subthreshold Leakage with power gating = 0.0710611 W
        Gate Leakage = 0.0247181 W
        Runtime Dynamic = 1.63943 W

          Data Cache:
            Area = 2.33788 mm^2
            Peak Dynamic = 3.47633 W
            Subthreshold Leakage = 0.117977 W
            Subthreshold Leakage with power gating = 0.0659108 W
            Gate Leakage = 0.021324 W
            Runtime Dynamic = 1.32587 W

          LoadQ:
            Area = 0.033143 mm^2
            Peak Dynamic = 0.0875905 W
            Subthreshold Leakage = 0.00220405 W
            Subthreshold Leakage with power gating = 0.00125631 W
            Gate Leakage = 0.000474856 W
            Runtime Dynamic = 0.0875906 W

          StoreQ:
            Area = 0.0396596 mm^2
            Peak Dynamic = 0.112981 W
            Subthreshold Leakage = 0.00305145 W
            Subthreshold Leakage with power gating = 0.00173933 W
            Gate Leakage = 0.000620374 W
            Runtime Dynamic = 0.225962 W

      Memory Management Unit:
        Area = 0.0771274 mm^2
        Peak Dynamic = 0.248076 W
        Subthreshold Leakage = 0.00959892 W
        Subthreshold Leakage with power gating = 0.00528669 W
        Gate Leakage = 0.00337874 W
        Runtime Dynamic = 0.0810567 W

          Itlb:
            Area = 0.024606 mm^2
            Peak Dynamic = 0.0636083 W
            Subthreshold Leakage = 0.00211707 W
            Subthreshold Leakage with power gating = 0.00120673 W
            Gate Leakage = 0.00042452 W
            Runtime Dynamic = 0.0101531 W

          Dtlb:
            Area = 0.0350782 mm^2
            Peak Dynamic = 0.070824 W
            Subthreshold Leakage = 0.00337764 W
            Subthreshold Leakage with power gating = 0.00192525 W
            Gate Leakage = 0.000655306 W
            Runtime Dynamic = 0.0709035 W

      Execution Unit:
        Area = 3.35308 mm^2
        Peak Dynamic = 3.2015 W
        Subthreshold Leakage = 0.304565 W
        Subthreshold Leakage with power gating = 0.161292 W
        Gate Leakage = 0.0689468 W
        Runtime Dynamic = 2.35306 W

          Register Files:
            Area = 0.221264 mm^2
            Peak Dynamic = 0.0625878 W
            Subthreshold Leakage = 0.002443 W
            Subthreshold Leakage with power gating = 0.00131334 W
            Gate Leakage = 0.000507924 W
            Runtime Dynamic = 0.0725331 W

              Integer RF:
                Area = 0.139576 mm^2
                Peak Dynamic = 0.0625878 W
                Subthreshold Leakage = 0.00148669 W
                Subthreshold Leakage with power gating = 0.000792295 W
                Gate Leakage = 0.000320781 W
                Runtime Dynamic = 0.0640102 W

              Floating Point RF:
                Area = 0.0816879 mm^2
                Peak Dynamic = 0 W
                Subthreshold Leakage = 0.000956315 W
                Subthreshold Leakage with power gating = 0.000521046 W
                Gate Leakage = 0.000187143 W
                Runtime Dynamic = 0.00852283 W

          Instruction Scheduler:
            Area = 0.855834 mm^2
            Peak Dynamic = 2.70027 W
            Subthreshold Leakage = 0.0280724 W
            Subthreshold Leakage with power gating = 0.0161029 W
            Gate Leakage = 0.00605602 W
            Runtime Dynamic = 0.960581 W

              Instruction Window:
                Area = 0.400666 mm^2
                Peak Dynamic = 1.15699 W
                Subthreshold Leakage = 0.0198733 W
                Subthreshold Leakage with power gating = 0.0113244 W
                Gate Leakage = 0.00443242 W
                Runtime Dynamic = 0.412146 W

              FP Instruction Window:
                Area = 0.128984 mm^2
                Peak Dynamic = 0.677218 W
                Subthreshold Leakage = 0.0042138 W
                Subthreshold Leakage with power gating = 0.00239847 W
                Gate Leakage = 0.000959985 W
                Runtime Dynamic = 0.239708 W

              ROB:
                Area = 0.326184 mm^2
                Peak Dynamic = 0.866056 W
                Subthreshold Leakage = 0.0039853 W
                Subthreshold Leakage with power gating = 0.00238003 W
                Gate Leakage = 0.000663617 W
                Runtime Dynamic = 0.308727 W

          Integer ALUs (Count: 6 ):
            Area = 0.290056 mm^2
            Peak Dynamic = 0.264916 W
            Subthreshold Leakage = 0.0811344 W
            Subthreshold Leakage with power gating = 0.0425956 W
            Gate Leakage = 0.0180587 W
            Runtime Dynamic = 0.357088 W

          Floating Point Units (FPUs) (Count: 2 ):
            Area = 1.80359 mm^2
            Peak Dynamic = 0 W
            Subthreshold Leakage = 0.126125 W
            Subthreshold Leakage with power gating = 0.0662155 W
            Gate Leakage = 0.0280725 W
            Runtime Dynamic = 0.29864 W

          Complex ALUs (Mul/Div) (Count: 1 ):
            Area = 0.145028 mm^2
            Peak Dynamic = 0 W
            Subthreshold Leakage = 0.0405672 W
            Subthreshold Leakage with power gating = 0.0212978 W
            Gate Leakage = 0.00902936 W
            Runtime Dynamic = 0.199093 W

          Results Broadcast Bus:
            Area Overhead = 0.0198659 mm^2
            Peak Dynamic = 0.148607 W
            Subthreshold Leakage = 0.0221195 W
            Subthreshold Leakage with power gating = 0.0116127 W
            Gate Leakage = 0.0049233 W
            Runtime Dynamic = 0.465121 W

*****************************************************************************************
Core:
      Area = 11.5242 mm^2
      Peak Dynamic = 12.6092 W
      Subthreshold Leakage = 1.03784 W
      Subthreshold Leakage with power gating = 0.5577 W
      Gate Leakage = 0.232058 W
      Runtime Dynamic = 3.49898 W

      Instruction Fetch Unit:
        Area = 2.31157 mm^2
        Peak Dynamic = 4.35266 W
        Subthreshold Leakage = 0.201207 W
        Subthreshold Leakage with power gating = 0.112052 W
        Gate Leakage = 0.0440334 W
        Runtime Dynamic = 0.334545 W

          Instruction Cache:
            Area = 1.22592 mm^2
            Peak Dynamic = 3.21422 W
            Subthreshold Leakage = 0.0864778 W
            Subthreshold Leakage with power gating = 0.0489618 W
            Gate Leakage = 0.0234788 W
            Runtime Dynamic = 0.153587 W

          Branch Target Buffer:
            Area = 0.301471 mm^2
            Peak Dynamic = 0.0940176 W
            Subthreshold Leakage = 0.0193955 W
            Subthreshold Leakage with power gating = 0.0124876 W
            Gate Leakage = 0.00296931 W
            Runtime Dynamic = 0.00449367 W

          Branch Predictor:
            Area = 0.0511729 mm^2
            Peak Dynamic = 0.030293 W
            Subthreshold Leakage = 0.0041914 W
            Subthreshold Leakage with power gating = 0.00272474 W
            Gate Leakage = 0.000542871 W
            Runtime Dynamic = 0.00200037 W

              Global Predictor:
                Area = 0.0163986 mm^2
                Peak Dynamic = 0.00855795 W
                Subthreshold Leakage = 0.00159351 W
                Subthreshold Leakage with power gating = 0.0010355 W
                Gate Leakage = 0.000198698 W
                Runtime Dynamic = 0.000452584 W

              Local Predictor:
              L1_Local Predictor:
                Area = 0.00951851 mm^2
                Peak Dynamic = 0.0071349 W
                Subthreshold Leakage = 0.000809103 W
                Subthreshold Leakage with power gating = 0.000525292 W
                Gate Leakage = 0.000112139 W
                Runtime Dynamic = 0.000391413 W

              L2_Local Predictor:
                Area = 0.00492513 mm^2
                Peak Dynamic = 0.00363767 W
                Subthreshold Leakage = 0.000410102 W
                Subthreshold Leakage with power gating = 0.000265575 W
                Gate Leakage = 5.89842e-05 W
                Runtime Dynamic = 0.000199577 W

              Chooser:
                Area = 0.0163986 mm^2
                Peak Dynamic = 0.00855795 W
                Subthreshold Leakage = 0.00159351 W
                Subthreshold Leakage with power gating = 0.0010355 W
                Gate Leakage = 0.000198698 W
                Runtime Dynamic = 0.000452584 W

              RAS:
                Area = 0.00393205 mm^2
                Peak Dynamic = 0.00604223 W
                Subthreshold Leakage = 0.000195279 W
                Subthreshold Leakage with power gating = 0.000128442 W
                Gate Leakage = 3.33361e-05 W
                Runtime Dynamic = 0.000703793 W

          Instruction Buffer:
            Area = 0.00797765 mm^2
            Peak Dynamic = 0.326566 W
            Subthreshold Leakage = 0.00033082 W
            Subthreshold Leakage with power gating = 0.000201727 W
            Gate Leakage = 5.13934e-05 W
            Runtime Dynamic = 0.0485901 W

          Instruction Decoder:
            Area = 0.707577 mm^2
            Peak Dynamic = 0.563985 W
            Subthreshold Leakage = 0.0867078 W
            Subthreshold Leakage with power gating = 0.0455216 W
            Gate Leakage = 0.0146921 W
            Runtime Dynamic = 0.125874 W

      Renaming Unit:
        Area = 0.143312 mm^2
        Peak Dynamic = 2.40461 W
        Subthreshold Leakage = 0.0163445 W
        Subthreshold Leakage with power gating = 0.00914191 W
        Gate Leakage = 0.00667097 W
        Runtime Dynamic = 0.101601 W

          Int Front End RAT:
            Area = 0.044715 mm^2
            Peak Dynamic = 0.420001 W
            Subthreshold Leakage = 0.00138855 W
            Subthreshold Leakage with power gating = 0.000791473 W
            Gate Leakage = 0.000294553 W
            Runtime Dynamic = 0.0923046 W

          FP Front End RAT:
            Area = 0.0652313 mm^2
            Peak Dynamic = 1.82541 W
            Subthreshold Leakage = 0.0107119 W
            Subthreshold Leakage with power gating = 0.00610576 W
            Gate Leakage = 0.00404879 W
            Runtime Dynamic = 2.109e-05 W

          Free List:
            Area = 0.0159228 mm^2
            Peak Dynamic = 0.0207794 W
            Subthreshold Leakage = 0.000139843 W
            Subthreshold Leakage with power gating = 8.99692e-05 W
            Gate Leakage = 2.87151e-05 W
            Runtime Dynamic = 0.00927562 W

      Load Store Unit:
        Area = 2.93072 mm^2
        Peak Dynamic = 2.54524 W
        Subthreshold Leakage = 0.127337 W
        Subthreshold Leakage with power gating = 0.0710611 W
        Gate Leakage = 0.0247181 W
        Runtime Dynamic = 1.03524 W

          Data Cache:
            Area = 2.33788 mm^2
            Peak Dynamic = 2.37107 W
            Subthreshold Leakage = 0.117977 W
            Subthreshold Leakage with power gating = 0.0659108 W
            Gate Leakage = 0.021324 W
            Runtime Dynamic = 0.846548 W

          LoadQ:
            Area = 0.033143 mm^2
            Peak Dynamic = 0.0527102 W
            Subthreshold Leakage = 0.00220405 W
            Subthreshold Leakage with power gating = 0.00125631 W
            Gate Leakage = 0.000474856 W
            Runtime Dynamic = 0.0527102 W

          StoreQ:
            Area = 0.0396596 mm^2
            Peak Dynamic = 0.0679896 W
            Subthreshold Leakage = 0.00305145 W
            Subthreshold Leakage with power gating = 0.00173933 W
            Gate Leakage = 0.000620374 W
            Runtime Dynamic = 0.135979 W

      Memory Management Unit:
        Area = 0.0771274 mm^2
        Peak Dynamic = 0.195356 W
        Subthreshold Leakage = 0.00959892 W
        Subthreshold Leakage with power gating = 0.00528669 W
        Gate Leakage = 0.00337874 W
        Runtime Dynamic = 0.0494185 W

          Itlb:
            Area = 0.024606 mm^2
            Peak Dynamic = 0.0567861 W
            Subthreshold Leakage = 0.00211707 W
            Subthreshold Leakage with power gating = 0.00120673 W
            Gate Leakage = 0.00042452 W
            Runtime Dynamic = 0.00575759 W

          Dtlb:
            Area = 0.0350782 mm^2
            Peak Dynamic = 0.0426204 W
            Subthreshold Leakage = 0.00337764 W
            Subthreshold Leakage with power gating = 0.00192525 W
            Gate Leakage = 0.000655306 W
            Runtime Dynamic = 0.0436609 W

      Execution Unit:
        Area = 3.35308 mm^2
        Peak Dynamic = 3.11133 W
        Subthreshold Leakage = 0.304565 W
        Subthreshold Leakage with power gating = 0.161292 W
        Gate Leakage = 0.0689468 W
        Runtime Dynamic = 1.97818 W

          Register Files:
            Area = 0.221264 mm^2
            Peak Dynamic = 0.051329 W
            Subthreshold Leakage = 0.002443 W
            Subthreshold Leakage with power gating = 0.00131334 W
            Gate Leakage = 0.000507924 W
            Runtime Dynamic = 0.0594799 W

              Integer RF:
                Area = 0.139576 mm^2
                Peak Dynamic = 0.051323 W
                Subthreshold Leakage = 0.00148669 W
                Subthreshold Leakage with power gating = 0.000792295 W
                Gate Leakage = 0.000320781 W
                Runtime Dynamic = 0.0524909 W

              Floating Point RF:
                Area = 0.0816879 mm^2
                Peak Dynamic = 6.05002e-06 W
                Subthreshold Leakage = 0.000956315 W
                Subthreshold Leakage with power gating = 0.000521046 W
                Gate Leakage = 0.000187143 W
                Runtime Dynamic = 0.00698905 W

          Instruction Scheduler:
            Area = 0.855834 mm^2
            Peak Dynamic = 2.70027 W
            Subthreshold Leakage = 0.0280724 W
            Subthreshold Leakage with power gating = 0.0161029 W
            Gate Leakage = 0.00605602 W
            Runtime Dynamic = 0.742047 W

              Instruction Window:
                Area = 0.400666 mm^2
                Peak Dynamic = 1.15699 W
                Subthreshold Leakage = 0.0198733 W
                Subthreshold Leakage with power gating = 0.0113244 W
                Gate Leakage = 0.00443242 W
                Runtime Dynamic = 0.337976 W

              FP Instruction Window:
                Area = 0.128984 mm^2
                Peak Dynamic = 0.677218 W
                Subthreshold Leakage = 0.0042138 W
                Subthreshold Leakage with power gating = 0.00239847 W
                Gate Leakage = 0.000959985 W
                Runtime Dynamic = 0.19657 W

              ROB:
                Area = 0.326184 mm^2
                Peak Dynamic = 0.866056 W
                Subthreshold Leakage = 0.0039853 W
                Subthreshold Leakage with power gating = 0.00238003 W
                Gate Leakage = 0.000663617 W
                Runtime Dynamic = 0.207501 W

          Integer ALUs (Count: 6 ):
            Area = 0.290056 mm^2
            Peak Dynamic = 0.217236 W
            Subthreshold Leakage = 0.0811344 W
            Subthreshold Leakage with power gating = 0.0425956 W
            Gate Leakage = 0.0180587 W
            Runtime Dynamic = 0.306014 W

          Floating Point Units (FPUs) (Count: 2 ):
            Area = 1.80359 mm^2
            Peak Dynamic = 3.81602e-05 W
            Subthreshold Leakage = 0.126125 W
            Subthreshold Leakage with power gating = 0.0662155 W
            Gate Leakage = 0.0280725 W
            Runtime Dynamic = 0.298655 W

          Complex ALUs (Mul/Div) (Count: 1 ):
            Area = 0.145028 mm^2
            Peak Dynamic = 0 W
            Subthreshold Leakage = 0.0405672 W
            Subthreshold Leakage with power gating = 0.0212978 W
            Gate Leakage = 0.00902936 W
            Runtime Dynamic = 0.199093 W

          Results Broadcast Bus:
            Area Overhead = 0.0198659 mm^2
            Peak Dynamic = 0.12186 W
            Subthreshold Leakage = 0.0221195 W
            Subthreshold Leakage with power gating = 0.0116127 W
            Gate Leakage = 0.0049233 W
            Runtime Dynamic = 0.372893 W

*****************************************************************************************
L2
      Area = 16.7284 mm^2
      Peak Dynamic = 0.349238 W
      Subthreshold Leakage = 0.794118 W
      Subthreshold Leakage with power gating = 0.500649 W
      Gate Leakage = 0.0453968 W
      Runtime Dynamic = 0.191832 W

*****************************************************************************************
BUSES
      Area = 0.25535 mm^2
      Peak Dynamic = 0 W
      Subthreshold Leakage = 0.0181407 W
      Subthreshold Leakage with power gating = 0.00952386 W
      Gate Leakage = 0.00585779 W
      Runtime Dynamic = 0 W

      Bus: 
        Area = 0.25535 mm^2
        Peak Dynamic = 0 W
        Subthreshold Leakage = 0.0181407 W
        Subthreshold Leakage with power gating = 0.00952386 W
        Gate Leakage = 0.00585779 W
        Runtime Dynamic = 0 W

*****************************************************************************************
