McPAT (version 1.0 of Aug, 2013) is computing the target processor...
 
Warning: icache array structure cannot satisfy latency constraint.
Warning: Branch Target Buffer array structure cannot satisfy latency constraint.
Warning: ReorderBuffer array structure cannot satisfy latency constraint.
Warning: icache array structure cannot satisfy latency constraint.
Warning: Branch Target Buffer array structure cannot satisfy latency constraint.
Warning: ReorderBuffer array structure cannot satisfy latency constraint.
Warning: icache array structure cannot satisfy latency constraint.
Warning: Branch Target Buffer array structure cannot satisfy latency constraint.
Warning: ReorderBuffer array structure cannot satisfy latency constraint.
Warning: icache array structure cannot satisfy latency constraint.
Warning: Branch Target Buffer array structure cannot satisfy latency constraint.
Warning: ReorderBuffer array structure cannot satisfy latency constraint.
Warning: L2cache array structure cannot satisfy latency constraint.

McPAT (version 1.0 of Aug, 2013) results  (current print level is 5)
*****************************************************************************************
  Technology 65 nm
  Using Long Channel Devices When Appropriate
  Interconnect metal projection= aggressive interconnect technology projection
  Core clock Rate(MHz) 2660

*****************************************************************************************
Processor: 
  Area = 263.503 mm^2
  Peak Power = 232.357 W
  Total Leakage = 21.1285 W
  Peak Dynamic = 211.229 W
  Subthreshold Leakage = 18.1722 W
  Subthreshold Leakage with power gating = 8.09688 W
  Gate Leakage = 2.95624 W
  Runtime Dynamic = 48.395 W

  Total Cores: 4 cores 
  Device Type= ITRS high performance device type
    Area = 213.475 mm^2
    Peak Dynamic = 210.212 W
    Subthreshold Leakage = 16.645 W
    Subthreshold Leakage with power gating = 7.31305 W
    Gate Leakage = 2.84573 W
    Runtime Dynamic = 47.8382 W

  Total L2s: 
  Device Type= ITRS high performance device type
    Area = 47.7594 mm^2
    Peak Dynamic = 1.01686 W
    Subthreshold Leakage = 1.48308 W
    Subthreshold Leakage with power gating = 0.708647 W
    Gate Leakage = 0.100053 W
    Runtime Dynamic = 0.556876 W

  Total NoCs (Network/Bus): 
  Device Type= ITRS high performance device type
    Area = 2.26799 mm^2
    Peak Dynamic = 0 W
    Subthreshold Leakage = 0.044108 W
    Subthreshold Leakage with power gating = 0.0181946 W
    Gate Leakage = 0.0104602 W
    Runtime Dynamic = 0 W

*****************************************************************************************
Core:
      Area = 53.3689 mm^2
      Peak Dynamic = 43.5757 W
      Subthreshold Leakage = 4.16126 W
      Subthreshold Leakage with power gating = 1.82826 W
      Gate Leakage = 0.711432 W
      Runtime Dynamic = 4.91954 W

      Instruction Fetch Unit:
        Area = 16.6791 mm^2
        Peak Dynamic = 7.34881 W
        Subthreshold Leakage = 0.831766 W
        Subthreshold Leakage with power gating = 0.38846 W
        Gate Leakage = 0.155048 W
        Runtime Dynamic = 0.44194 W

          Instruction Cache:
            Area = 6.75661 mm^2
            Peak Dynamic = 3.31587 W
            Subthreshold Leakage = 0.297311 W
            Subthreshold Leakage with power gating = 0.150398 W
            Gate Leakage = 0.0613922 W
            Runtime Dynamic = 0.194392 W

          Branch Target Buffer:
            Area = 5.61054 mm^2
            Peak Dynamic = 1.24445 W
            Subthreshold Leakage = 0.206554 W
            Subthreshold Leakage with power gating = 0.100841 W
            Gate Leakage = 0.050165 W
            Runtime Dynamic = 0.0685031 W

          Branch Predictor:
            Area = 0.290038 mm^2
            Peak Dynamic = 0.0860761 W
            Subthreshold Leakage = 0.0138691 W
            Subthreshold Leakage with power gating = 0.00759211 W
            Gate Leakage = 0.0013017 W
            Runtime Dynamic = 0.00486728 W

              Global Predictor:
                Area = 0.0923009 mm^2
                Peak Dynamic = 0.0240659 W
                Subthreshold Leakage = 0.00527373 W
                Subthreshold Leakage with power gating = 0.00288394 W
                Gate Leakage = 0.000476013 W
                Runtime Dynamic = 0.00145148 W

              Local Predictor:
              L1_Local Predictor:
                Area = 0.0548037 mm^2
                Peak Dynamic = 0.0203863 W
                Subthreshold Leakage = 0.00267663 W
                Subthreshold Leakage with power gating = 0.00146319 W
                Gate Leakage = 0.000269239 W
                Runtime Dynamic = 0.00126946 W

              L2_Local Predictor:
                Area = 0.0280973 mm^2
                Peak Dynamic = 0.0103889 W
                Subthreshold Leakage = 0.00135709 W
                Subthreshold Leakage with power gating = 0.00073939 W
                Gate Leakage = 0.000141843 W
                Runtime Dynamic = 0.000646971 W

              Chooser:
                Area = 0.0923009 mm^2
                Peak Dynamic = 0.0240659 W
                Subthreshold Leakage = 0.00527373 W
                Subthreshold Leakage with power gating = 0.00288394 W
                Gate Leakage = 0.000476013 W
                Runtime Dynamic = 0.00145148 W

              RAS:
                Area = 0.022535 mm^2
                Peak Dynamic = 0.017558 W
                Subthreshold Leakage = 0.000645049 W
                Subthreshold Leakage with power gating = 0.000361038 W
                Gate Leakage = 8.04384e-05 W
                Runtime Dynamic = 0.000694856 W

          Instruction Buffer:
            Area = 0.0513995 mm^2
            Peak Dynamic = 0.946774 W
            Subthreshold Leakage = 0.00108634 W
            Subthreshold Leakage with power gating = 0.000538263 W
            Gate Leakage = 0.000121689 W
            Runtime Dynamic = 0.0485701 W

          Instruction Decoder:
            Area = 3.87654 mm^2
            Peak Dynamic = 1.6323 W
            Subthreshold Leakage = 0.299448 W
            Subthreshold Leakage with power gating = 0.123523 W
            Gate Leakage = 0.0366139 W
            Runtime Dynamic = 0.125607 W

      Renaming Unit:
        Area = 0.773725 mm^2
        Peak Dynamic = 7.14742 W
        Subthreshold Leakage = 0.0529538 W
        Subthreshold Leakage with power gating = 0.0280629 W
        Gate Leakage = 0.0156786 W
        Runtime Dynamic = 0.101241 W

          Int Front End RAT:
            Area = 0.241418 mm^2
            Peak Dynamic = 1.25896 W
            Subthreshold Leakage = 0.00453825 W
            Subthreshold Leakage with power gating = 0.0025868 W
            Gate Leakage = 0.000695293 W
            Runtime Dynamic = 0.0921551 W

          FP Front End RAT:
            Area = 0.351534 mm^2
            Peak Dynamic = 5.42872 W
            Subthreshold Leakage = 0.0344542 W
            Subthreshold Leakage with power gating = 0.0196389 W
            Gate Leakage = 0.00945921 W
            Runtime Dynamic = 0 W

          Free List:
            Area = 0.0867714 mm^2
            Peak Dynamic = 0.0590361 W
            Subthreshold Leakage = 0.000463845 W
            Subthreshold Leakage with power gating = 0.000269451 W
            Gate Leakage = 7.05318e-05 W
            Runtime Dynamic = 0.00908577 W

      Load Store Unit:
        Area = 10.888 mm^2
        Peak Dynamic = 3.68363 W
        Subthreshold Leakage = 0.310052 W
        Subthreshold Leakage with power gating = 0.167489 W
        Gate Leakage = 0.0478226 W
        Runtime Dynamic = 0.855665 W

          Data Cache:
            Area = 8.0728 mm^2
            Peak Dynamic = 3.44542 W
            Subthreshold Leakage = 0.262501 W
            Subthreshold Leakage with power gating = 0.142511 W
            Gate Leakage = 0.0349272 W
            Runtime Dynamic = 0.538459 W

          LoadQ:
            Area = 0.178621 mm^2
            Peak Dynamic = 0.0525103 W
            Subthreshold Leakage = 0.00713781 W
            Subthreshold Leakage with power gating = 0.00406855 W
            Gate Leakage = 0.00110995 W
            Runtime Dynamic = 0.0525103 W

          StoreQ:
            Area = 0.685501 mm^2
            Peak Dynamic = 0.132348 W
            Subthreshold Leakage = 0.0269154 W
            Subthreshold Leakage with power gating = 0.0153418 W
            Gate Leakage = 0.00633191 W
            Runtime Dynamic = 0.264696 W

      Memory Management Unit:
        Area = 0.922128 mm^2
        Peak Dynamic = 0.466786 W
        Subthreshold Leakage = 0.0569545 W
        Subthreshold Leakage with power gating = 0.0303382 W
        Gate Leakage = 0.0145682 W
        Runtime Dynamic = 0.071507 W

          Itlb:
            Area = 0.639014 mm^2
            Peak Dynamic = 0.197977 W
            Subthreshold Leakage = 0.0323609 W
            Subthreshold Leakage with power gating = 0.0184457 W
            Gate Leakage = 0.00756163 W
            Runtime Dynamic = 0.0291716 W

          Dtlb:
            Area = 0.189112 mm^2
            Peak Dynamic = 0.0417833 W
            Subthreshold Leakage = 0.0110961 W
            Subthreshold Leakage with power gating = 0.00632475 W
            Gate Leakage = 0.00155302 W
            Runtime Dynamic = 0.0423353 W

      Execution Unit:
        Area = 17.8249 mm^2
        Peak Dynamic = 24.929 W
        Subthreshold Leakage = 1.64003 W
        Subthreshold Leakage with power gating = 0.690244 W
        Gate Leakage = 0.274494 W
        Runtime Dynamic = 3.44919 W

          Register Files:
            Area = 1.24273 mm^2
            Peak Dynamic = 0.0512076 W
            Subthreshold Leakage = 0.00783917 W
            Subthreshold Leakage with power gating = 0.00348781 W
            Gate Leakage = 0.00118474 W
            Runtime Dynamic = 0.0593125 W

              Integer RF:
                Area = 0.773151 mm^2
                Peak Dynamic = 0.0512076 W
                Subthreshold Leakage = 0.00479902 W
                Subthreshold Leakage with power gating = 0.00207228 W
                Gate Leakage = 0.000746865 W
                Runtime Dynamic = 0.052371 W

              Floating Point RF:
                Area = 0.469582 mm^2
                Peak Dynamic = 0 W
                Subthreshold Leakage = 0.00304015 W
                Subthreshold Leakage with power gating = 0.00141553 W
                Gate Leakage = 0.000437878 W
                Runtime Dynamic = 0.00694155 W

          Instruction Scheduler:
            Area = 5.63983 mm^2
            Peak Dynamic = 24.5471 W
            Subthreshold Leakage = 0.149298 W
            Subthreshold Leakage with power gating = 0.0750616 W
            Gate Leakage = 0.0319423 W
            Runtime Dynamic = 2.22063 W

              Instruction Window:
                Area = 2.15891 mm^2
                Peak Dynamic = 3.3662 W
                Subthreshold Leakage = 0.063785 W
                Subthreshold Leakage with power gating = 0.0363184 W
                Gate Leakage = 0.0102635 W
                Runtime Dynamic = 0.339166 W

              FP Instruction Window:
                Area = 0.694993 mm^2
                Peak Dynamic = 1.97613 W
                Subthreshold Leakage = 0.0135308 W
                Subthreshold Leakage with power gating = 0.00767348 W
                Gate Leakage = 0.002225 W
                Runtime Dynamic = 0.197813 W

              ROB:
                Area = 2.78593 mm^2
                Peak Dynamic = 19.2048 W
                Subthreshold Leakage = 0.0719825 W
                Subthreshold Leakage with power gating = 0.0310698 W
                Gate Leakage = 0.0194538 W
                Runtime Dynamic = 1.68365 W

          Integer ALUs (Count: 6 ):
            Area = 0.672672 mm^2
            Peak Dynamic = 0.169731 W
            Subthreshold Leakage = 0.271918 W
            Subthreshold Leakage with power gating = 0.112166 W
            Gate Leakage = 0.0436568 W
            Runtime Dynamic = 0.259129 W

          Floating Point Units (FPUs) (Count: 2 ):
            Area = 9.71959 mm^2
            Peak Dynamic = 0 W
            Subthreshold Leakage = 0.982251 W
            Subthreshold Leakage with power gating = 0.405179 W
            Gate Leakage = 0.157702 W
            Runtime Dynamic = 0.303285 W

          Complex ALUs (Mul/Div) (Count: 1 ):
            Area = 0.336336 mm^2
            Peak Dynamic = 0 W
            Subthreshold Leakage = 0.135959 W
            Subthreshold Leakage with power gating = 0.0560831 W
            Gate Leakage = 0.0218284 W
            Runtime Dynamic = 0.20219 W

          Results Broadcast Bus:
            Area Overhead = 0.119693 mm^2
            Peak Dynamic = 0.140438 W
            Subthreshold Leakage = 0.0792689 W
            Subthreshold Leakage with power gating = 0.0326984 W
            Gate Leakage = 0.0127267 W
            Runtime Dynamic = 0.404644 W

*****************************************************************************************
Core:
      Area = 53.3689 mm^2
      Peak Dynamic = 56.5176 W
      Subthreshold Leakage = 4.16126 W
      Subthreshold Leakage with power gating = 1.82826 W
      Gate Leakage = 0.711432 W
      Runtime Dynamic = 15.6749 W

      Instruction Fetch Unit:
        Area = 16.6791 mm^2
        Peak Dynamic = 15.083 W
        Subthreshold Leakage = 0.831766 W
        Subthreshold Leakage with power gating = 0.38846 W
        Gate Leakage = 0.155048 W
        Runtime Dynamic = 1.34548 W

          Instruction Cache:
            Area = 6.75661 mm^2
            Peak Dynamic = 10.7727 W
            Subthreshold Leakage = 0.297311 W
            Subthreshold Leakage with power gating = 0.150398 W
            Gate Leakage = 0.0613922 W
            Runtime Dynamic = 0.601264 W

          Branch Target Buffer:
            Area = 5.61054 mm^2
            Peak Dynamic = 1.24445 W
            Subthreshold Leakage = 0.206554 W
            Subthreshold Leakage with power gating = 0.100841 W
            Gate Leakage = 0.050165 W
            Runtime Dynamic = 0.0845463 W

          Branch Predictor:
            Area = 0.290038 mm^2
            Peak Dynamic = 0.0860761 W
            Subthreshold Leakage = 0.0138691 W
            Subthreshold Leakage with power gating = 0.00759211 W
            Gate Leakage = 0.0013017 W
            Runtime Dynamic = 0.00787494 W

              Global Predictor:
                Area = 0.0923009 mm^2
                Peak Dynamic = 0.0240659 W
                Subthreshold Leakage = 0.00527373 W
                Subthreshold Leakage with power gating = 0.00288394 W
                Gate Leakage = 0.000476013 W
                Runtime Dynamic = 0.00183097 W

              Local Predictor:
              L1_Local Predictor:
                Area = 0.0548037 mm^2
                Peak Dynamic = 0.0203863 W
                Subthreshold Leakage = 0.00267663 W
                Subthreshold Leakage with power gating = 0.00146319 W
                Gate Leakage = 0.000269239 W
                Runtime Dynamic = 0.00161274 W

              L2_Local Predictor:
                Area = 0.0280973 mm^2
                Peak Dynamic = 0.0103889 W
                Subthreshold Leakage = 0.00135709 W
                Subthreshold Leakage with power gating = 0.00073939 W
                Gate Leakage = 0.000141843 W
                Runtime Dynamic = 0.000821931 W

              Chooser:
                Area = 0.0923009 mm^2
                Peak Dynamic = 0.0240659 W
                Subthreshold Leakage = 0.00527373 W
                Subthreshold Leakage with power gating = 0.00288394 W
                Gate Leakage = 0.000476013 W
                Runtime Dynamic = 0.00183097 W

              RAS:
                Area = 0.022535 mm^2
                Peak Dynamic = 0.017558 W
                Subthreshold Leakage = 0.000645049 W
                Subthreshold Leakage with power gating = 0.000361038 W
                Gate Leakage = 8.04384e-05 W
                Runtime Dynamic = 0.00260026 W

          Instruction Buffer:
            Area = 0.0513995 mm^2
            Peak Dynamic = 0.946774 W
            Subthreshold Leakage = 0.00108634 W
            Subthreshold Leakage with power gating = 0.000538263 W
            Gate Leakage = 0.000121689 W
            Runtime Dynamic = 0.181757 W

          Instruction Decoder:
            Area = 3.87654 mm^2
            Peak Dynamic = 1.6323 W
            Subthreshold Leakage = 0.299448 W
            Subthreshold Leakage with power gating = 0.123523 W
            Gate Leakage = 0.0366139 W
            Runtime Dynamic = 0.470041 W

      Renaming Unit:
        Area = 0.773725 mm^2
        Peak Dynamic = 7.14742 W
        Subthreshold Leakage = 0.0529538 W
        Subthreshold Leakage with power gating = 0.0280629 W
        Gate Leakage = 0.0156786 W
        Runtime Dynamic = 0.390766 W

          Int Front End RAT:
            Area = 0.241418 mm^2
            Peak Dynamic = 1.25896 W
            Subthreshold Leakage = 0.00453825 W
            Subthreshold Leakage with power gating = 0.0025868 W
            Gate Leakage = 0.000695293 W
            Runtime Dynamic = 0.356702 W

          FP Front End RAT:
            Area = 0.351534 mm^2
            Peak Dynamic = 5.42872 W
            Subthreshold Leakage = 0.0344542 W
            Subthreshold Leakage with power gating = 0.0196389 W
            Gate Leakage = 0.00945921 W
            Runtime Dynamic = 6.29577e-05 W

          Free List:
            Area = 0.0867714 mm^2
            Peak Dynamic = 0.0590361 W
            Subthreshold Leakage = 0.000463845 W
            Subthreshold Leakage with power gating = 0.000269451 W
            Gate Leakage = 7.05318e-05 W
            Runtime Dynamic = 0.034001 W

      Load Store Unit:
        Area = 10.888 mm^2
        Peak Dynamic = 7.24979 W
        Subthreshold Leakage = 0.310052 W
        Subthreshold Leakage with power gating = 0.167489 W
        Gate Leakage = 0.0478226 W
        Runtime Dynamic = 2.68784 W

          Data Cache:
            Area = 8.0728 mm^2
            Peak Dynamic = 6.49305 W
            Subthreshold Leakage = 0.262501 W
            Subthreshold Leakage with power gating = 0.142511 W
            Gate Leakage = 0.0349272 W
            Runtime Dynamic = 1.68013 W

          LoadQ:
            Area = 0.178621 mm^2
            Peak Dynamic = 0.166816 W
            Subthreshold Leakage = 0.00713781 W
            Subthreshold Leakage with power gating = 0.00406855 W
            Gate Leakage = 0.00110995 W
            Runtime Dynamic = 0.166816 W

          StoreQ:
            Area = 0.685501 mm^2
            Peak Dynamic = 0.420447 W
            Subthreshold Leakage = 0.0269154 W
            Subthreshold Leakage with power gating = 0.0153418 W
            Gate Leakage = 0.00633191 W
            Runtime Dynamic = 0.840894 W

      Memory Management Unit:
        Area = 0.922128 mm^2
        Peak Dynamic = 1.06102 W
        Subthreshold Leakage = 0.0569545 W
        Subthreshold Leakage with power gating = 0.0303382 W
        Gate Leakage = 0.0145682 W
        Runtime Dynamic = 0.210339 W

          Itlb:
            Area = 0.639014 mm^2
            Peak Dynamic = 0.643191 W
            Subthreshold Leakage = 0.0323609 W
            Subthreshold Leakage with power gating = 0.0184457 W
            Gate Leakage = 0.00756163 W
            Runtime Dynamic = 0.07614 W

          Dtlb:
            Area = 0.189112 mm^2
            Peak Dynamic = 0.132738 W
            Subthreshold Leakage = 0.0110961 W
            Subthreshold Leakage with power gating = 0.00632475 W
            Gate Leakage = 0.00155302 W
            Runtime Dynamic = 0.134199 W

      Execution Unit:
        Area = 17.8249 mm^2
        Peak Dynamic = 25.9764 W
        Subthreshold Leakage = 1.64003 W
        Subthreshold Leakage with power gating = 0.690244 W
        Gate Leakage = 0.274494 W
        Runtime Dynamic = 11.0404 W

          Register Files:
            Area = 1.24273 mm^2
            Peak Dynamic = 0.191639 W
            Subthreshold Leakage = 0.00783917 W
            Subthreshold Leakage with power gating = 0.00348781 W
            Gate Leakage = 0.00118474 W
            Runtime Dynamic = 0.221956 W

              Integer RF:
                Area = 0.773151 mm^2
                Peak Dynamic = 0.191621 W
                Subthreshold Leakage = 0.00479902 W
                Subthreshold Leakage with power gating = 0.00207228 W
                Gate Leakage = 0.000746865 W
                Runtime Dynamic = 0.19598 W

              Floating Point RF:
                Area = 0.469582 mm^2
                Peak Dynamic = 1.74281e-05 W
                Subthreshold Leakage = 0.00304015 W
                Subthreshold Leakage with power gating = 0.00141553 W
                Gate Leakage = 0.000437878 W
                Runtime Dynamic = 0.0259763 W

          Instruction Scheduler:
            Area = 5.63983 mm^2
            Peak Dynamic = 24.5471 W
            Subthreshold Leakage = 0.149298 W
            Subthreshold Leakage with power gating = 0.0750616 W
            Gate Leakage = 0.0319423 W
            Runtime Dynamic = 7.97591 W

              Instruction Window:
                Area = 2.15891 mm^2
                Peak Dynamic = 3.3662 W
                Subthreshold Leakage = 0.063785 W
                Subthreshold Leakage with power gating = 0.0363184 W
                Gate Leakage = 0.0102635 W
                Runtime Dynamic = 1.26921 W

              FP Instruction Window:
                Area = 0.694993 mm^2
                Peak Dynamic = 1.97613 W
                Subthreshold Leakage = 0.0135308 W
                Subthreshold Leakage with power gating = 0.00767348 W
                Gate Leakage = 0.002225 W
                Runtime Dynamic = 0.740247 W

              ROB:
                Area = 2.78593 mm^2
                Peak Dynamic = 19.2048 W
                Subthreshold Leakage = 0.0719825 W
                Subthreshold Leakage with power gating = 0.0310698 W
                Gate Leakage = 0.0194538 W
                Runtime Dynamic = 5.96645 W

          Integer ALUs (Count: 6 ):
            Area = 0.672672 mm^2
            Peak Dynamic = 0.635141 W
            Subthreshold Leakage = 0.271918 W
            Subthreshold Leakage with power gating = 0.112166 W
            Gate Leakage = 0.0436568 W
            Runtime Dynamic = 0.729078 W

          Floating Point Units (FPUs) (Count: 2 ):
            Area = 9.71959 mm^2
            Peak Dynamic = 8.07465e-05 W
            Subthreshold Leakage = 0.982251 W
            Subthreshold Leakage with power gating = 0.405179 W
            Gate Leakage = 0.157702 W
            Runtime Dynamic = 0.303322 W

          Complex ALUs (Mul/Div) (Count: 1 ):
            Area = 0.336336 mm^2
            Peak Dynamic = 0 W
            Subthreshold Leakage = 0.135959 W
            Subthreshold Leakage with power gating = 0.0560831 W
            Gate Leakage = 0.0218284 W
            Runtime Dynamic = 0.20219 W

          Results Broadcast Bus:
            Area Overhead = 0.119693 mm^2
            Peak Dynamic = 0.525528 W
            Subthreshold Leakage = 0.0792689 W
            Subthreshold Leakage with power gating = 0.0326984 W
            Gate Leakage = 0.0127267 W
            Runtime Dynamic = 1.60799 W

*****************************************************************************************
Core:
      Area = 53.3689 mm^2
      Peak Dynamic = 56.0508 W
      Subthreshold Leakage = 4.16126 W
      Subthreshold Leakage with power gating = 1.82826 W
      Gate Leakage = 0.711432 W
      Runtime Dynamic = 14.7935 W

      Instruction Fetch Unit:
        Area = 16.6791 mm^2
        Peak Dynamic = 13.7739 W
        Subthreshold Leakage = 0.831766 W
        Subthreshold Leakage with power gating = 0.38846 W
        Gate Leakage = 0.155048 W
        Runtime Dynamic = 1.35204 W

          Instruction Cache:
            Area = 6.75661 mm^2
            Peak Dynamic = 9.51056 W
            Subthreshold Leakage = 0.297311 W
            Subthreshold Leakage with power gating = 0.150398 W
            Gate Leakage = 0.0613922 W
            Runtime Dynamic = 0.540038 W

          Branch Target Buffer:
            Area = 5.61054 mm^2
            Peak Dynamic = 1.24445 W
            Subthreshold Leakage = 0.206554 W
            Subthreshold Leakage with power gating = 0.100841 W
            Gate Leakage = 0.050165 W
            Runtime Dynamic = 0.292749 W

          Branch Predictor:
            Area = 0.290038 mm^2
            Peak Dynamic = 0.0860761 W
            Subthreshold Leakage = 0.0138691 W
            Subthreshold Leakage with power gating = 0.00759211 W
            Gate Leakage = 0.0013017 W
            Runtime Dynamic = 0.0196782 W

              Global Predictor:
                Area = 0.0923009 mm^2
                Peak Dynamic = 0.0240659 W
                Subthreshold Leakage = 0.00527373 W
                Subthreshold Leakage with power gating = 0.00288394 W
                Gate Leakage = 0.000476013 W
                Runtime Dynamic = 0.00615685 W

              Local Predictor:
              L1_Local Predictor:
                Area = 0.0548037 mm^2
                Peak Dynamic = 0.0203863 W
                Subthreshold Leakage = 0.00267663 W
                Subthreshold Leakage with power gating = 0.00146319 W
                Gate Leakage = 0.000269239 W
                Runtime Dynamic = 0.00537153 W

              L2_Local Predictor:
                Area = 0.0280973 mm^2
                Peak Dynamic = 0.0103889 W
                Subthreshold Leakage = 0.00135709 W
                Subthreshold Leakage with power gating = 0.00073939 W
                Gate Leakage = 0.000141843 W
                Runtime Dynamic = 0.00273754 W

              Chooser:
                Area = 0.0923009 mm^2
                Peak Dynamic = 0.0240659 W
                Subthreshold Leakage = 0.00527373 W
                Subthreshold Leakage with power gating = 0.00288394 W
                Gate Leakage = 0.000476013 W
                Runtime Dynamic = 0.00615685 W

              RAS:
                Area = 0.022535 mm^2
                Peak Dynamic = 0.017558 W
                Subthreshold Leakage = 0.000645049 W
                Subthreshold Leakage with power gating = 0.000361038 W
                Gate Leakage = 8.04384e-05 W
                Runtime Dynamic = 0.00199298 W

          Instruction Buffer:
            Area = 0.0513995 mm^2
            Peak Dynamic = 0.946774 W
            Subthreshold Leakage = 0.00108634 W
            Subthreshold Leakage with power gating = 0.000538263 W
            Gate Leakage = 0.000121689 W
            Runtime Dynamic = 0.139309 W

          Instruction Decoder:
            Area = 3.87654 mm^2
            Peak Dynamic = 1.6323 W
            Subthreshold Leakage = 0.299448 W
            Subthreshold Leakage with power gating = 0.123523 W
            Gate Leakage = 0.0366139 W
            Runtime Dynamic = 0.360266 W

      Renaming Unit:
        Area = 0.773725 mm^2
        Peak Dynamic = 7.14742 W
        Subthreshold Leakage = 0.0529538 W
        Subthreshold Leakage with power gating = 0.0280629 W
        Gate Leakage = 0.0156786 W
        Runtime Dynamic = 0.283741 W

          Int Front End RAT:
            Area = 0.241418 mm^2
            Peak Dynamic = 1.25896 W
            Subthreshold Leakage = 0.00453825 W
            Subthreshold Leakage with power gating = 0.0025868 W
            Gate Leakage = 0.000695293 W
            Runtime Dynamic = 0.257682 W

          FP Front End RAT:
            Area = 0.351534 mm^2
            Peak Dynamic = 5.42872 W
            Subthreshold Leakage = 0.0344542 W
            Subthreshold Leakage with power gating = 0.0196389 W
            Gate Leakage = 0.00945921 W
            Runtime Dynamic = 3.47205e-09 W

          Free List:
            Area = 0.0867714 mm^2
            Peak Dynamic = 0.0590361 W
            Subthreshold Leakage = 0.000463845 W
            Subthreshold Leakage with power gating = 0.000269451 W
            Gate Leakage = 7.05318e-05 W
            Runtime Dynamic = 0.0260598 W

      Load Store Unit:
        Area = 10.888 mm^2
        Peak Dynamic = 8.45108 W
        Subthreshold Leakage = 0.310052 W
        Subthreshold Leakage with power gating = 0.167489 W
        Gate Leakage = 0.0478226 W
        Runtime Dynamic = 3.28926 W

          Data Cache:
            Area = 8.0728 mm^2
            Peak Dynamic = 7.51967 W
            Subthreshold Leakage = 0.262501 W
            Subthreshold Leakage with power gating = 0.142511 W
            Gate Leakage = 0.0349272 W
            Runtime Dynamic = 2.04895 W

          LoadQ:
            Area = 0.178621 mm^2
            Peak Dynamic = 0.205321 W
            Subthreshold Leakage = 0.00713781 W
            Subthreshold Leakage with power gating = 0.00406855 W
            Gate Leakage = 0.00110995 W
            Runtime Dynamic = 0.205321 W

          StoreQ:
            Area = 0.685501 mm^2
            Peak Dynamic = 0.517496 W
            Subthreshold Leakage = 0.0269154 W
            Subthreshold Leakage with power gating = 0.0153418 W
            Gate Leakage = 0.00633191 W
            Runtime Dynamic = 1.03499 W

      Memory Management Unit:
        Area = 0.922128 mm^2
        Peak Dynamic = 1.03586 W
        Subthreshold Leakage = 0.0569545 W
        Subthreshold Leakage with power gating = 0.0303382 W
        Gate Leakage = 0.0145682 W
        Runtime Dynamic = 0.246897 W

          Itlb:
            Area = 0.639014 mm^2
            Peak Dynamic = 0.567836 W
            Subthreshold Leakage = 0.0323609 W
            Subthreshold Leakage with power gating = 0.0184457 W
            Gate Leakage = 0.00756163 W
            Runtime Dynamic = 0.0832591 W

          Dtlb:
            Area = 0.189112 mm^2
            Peak Dynamic = 0.163377 W
            Subthreshold Leakage = 0.0110961 W
            Subthreshold Leakage with power gating = 0.00632475 W
            Gate Leakage = 0.00155302 W
            Runtime Dynamic = 0.163638 W

      Execution Unit:
        Area = 17.8249 mm^2
        Peak Dynamic = 25.6426 W
        Subthreshold Leakage = 1.64003 W
        Subthreshold Leakage with power gating = 0.690244 W
        Gate Leakage = 0.274494 W
        Runtime Dynamic = 9.62158 W

          Register Files:
            Area = 1.24273 mm^2
            Peak Dynamic = 0.146872 W
            Subthreshold Leakage = 0.00783917 W
            Subthreshold Leakage with power gating = 0.00348781 W
            Gate Leakage = 0.00118474 W
            Runtime Dynamic = 0.17012 W

              Integer RF:
                Area = 0.773151 mm^2
                Peak Dynamic = 0.146872 W
                Subthreshold Leakage = 0.00479902 W
                Subthreshold Leakage with power gating = 0.00207228 W
                Gate Leakage = 0.000746865 W
                Runtime Dynamic = 0.15021 W

              Floating Point RF:
                Area = 0.469582 mm^2
                Peak Dynamic = 0 W
                Subthreshold Leakage = 0.00304015 W
                Subthreshold Leakage with power gating = 0.00141553 W
                Gate Leakage = 0.000437878 W
                Runtime Dynamic = 0.0199097 W

          Instruction Scheduler:
            Area = 5.63983 mm^2
            Peak Dynamic = 24.5471 W
            Subthreshold Leakage = 0.149298 W
            Subthreshold Leakage with power gating = 0.0750616 W
            Gate Leakage = 0.0319423 W
            Runtime Dynamic = 7.0918 W

              Instruction Window:
                Area = 2.15891 mm^2
                Peak Dynamic = 3.3662 W
                Subthreshold Leakage = 0.063785 W
                Subthreshold Leakage with power gating = 0.0363184 W
                Gate Leakage = 0.0102635 W
                Runtime Dynamic = 0.972796 W

              FP Instruction Window:
                Area = 0.694993 mm^2
                Peak Dynamic = 1.97613 W
                Subthreshold Leakage = 0.0135308 W
                Subthreshold Leakage with power gating = 0.00767348 W
                Gate Leakage = 0.002225 W
                Runtime Dynamic = 0.567367 W

              ROB:
                Area = 2.78593 mm^2
                Peak Dynamic = 19.2048 W
                Subthreshold Leakage = 0.0719825 W
                Subthreshold Leakage with power gating = 0.0310698 W
                Gate Leakage = 0.0194538 W
                Runtime Dynamic = 5.55164 W

          Integer ALUs (Count: 6 ):
            Area = 0.672672 mm^2
            Peak Dynamic = 0.486817 W
            Subthreshold Leakage = 0.271918 W
            Subthreshold Leakage with power gating = 0.112166 W
            Gate Leakage = 0.0436568 W
            Runtime Dynamic = 0.593468 W

          Floating Point Units (FPUs) (Count: 2 ):
            Area = 9.71959 mm^2
            Peak Dynamic = 0 W
            Subthreshold Leakage = 0.982251 W
            Subthreshold Leakage with power gating = 0.405179 W
            Gate Leakage = 0.157702 W
            Runtime Dynamic = 0.303285 W

          Complex ALUs (Mul/Div) (Count: 1 ):
            Area = 0.336336 mm^2
            Peak Dynamic = 0 W
            Subthreshold Leakage = 0.135959 W
            Subthreshold Leakage with power gating = 0.0560831 W
            Gate Leakage = 0.0218284 W
            Runtime Dynamic = 0.20219 W

          Results Broadcast Bus:
            Area Overhead = 0.119693 mm^2
            Peak Dynamic = 0.402801 W
            Subthreshold Leakage = 0.0792689 W
            Subthreshold Leakage with power gating = 0.0326984 W
            Gate Leakage = 0.0127267 W
            Runtime Dynamic = 1.26072 W

*****************************************************************************************
Core:
      Area = 53.3689 mm^2
      Peak Dynamic = 54.0677 W
      Subthreshold Leakage = 4.16126 W
      Subthreshold Leakage with power gating = 1.82826 W
      Gate Leakage = 0.711432 W
      Runtime Dynamic = 12.4502 W

      Instruction Fetch Unit:
        Area = 16.6791 mm^2
        Peak Dynamic = 13.4627 W
        Subthreshold Leakage = 0.831766 W
        Subthreshold Leakage with power gating = 0.38846 W
        Gate Leakage = 0.155048 W
        Runtime Dynamic = 0.996294 W

          Instruction Cache:
            Area = 6.75661 mm^2
            Peak Dynamic = 9.2105 W
            Subthreshold Leakage = 0.297311 W
            Subthreshold Leakage with power gating = 0.150398 W
            Gate Leakage = 0.0613922 W
            Runtime Dynamic = 0.449941 W

          Branch Target Buffer:
            Area = 5.61054 mm^2
            Peak Dynamic = 1.24445 W
            Subthreshold Leakage = 0.206554 W
            Subthreshold Leakage with power gating = 0.100841 W
            Gate Leakage = 0.050165 W
            Runtime Dynamic = 0.0570983 W

          Branch Predictor:
            Area = 0.290038 mm^2
            Peak Dynamic = 0.0860761 W
            Subthreshold Leakage = 0.0138691 W
            Subthreshold Leakage with power gating = 0.00759211 W
            Gate Leakage = 0.0013017 W
            Runtime Dynamic = 0.00544102 W

              Global Predictor:
                Area = 0.0923009 mm^2
                Peak Dynamic = 0.0240659 W
                Subthreshold Leakage = 0.00527373 W
                Subthreshold Leakage with power gating = 0.00288394 W
                Gate Leakage = 0.000476013 W
                Runtime Dynamic = 0.00122031 W

              Local Predictor:
              L1_Local Predictor:
                Area = 0.0548037 mm^2
                Peak Dynamic = 0.0203863 W
                Subthreshold Leakage = 0.00267663 W
                Subthreshold Leakage with power gating = 0.00146319 W
                Gate Leakage = 0.000269239 W
                Runtime Dynamic = 0.0010703 W

              L2_Local Predictor:
                Area = 0.0280973 mm^2
                Peak Dynamic = 0.0103889 W
                Subthreshold Leakage = 0.00135709 W
                Subthreshold Leakage with power gating = 0.00073939 W
                Gate Leakage = 0.000141843 W
                Runtime Dynamic = 0.000545471 W

              Chooser:
                Area = 0.0923009 mm^2
                Peak Dynamic = 0.0240659 W
                Subthreshold Leakage = 0.00527373 W
                Subthreshold Leakage with power gating = 0.00288394 W
                Gate Leakage = 0.000476013 W
                Runtime Dynamic = 0.00122031 W

              RAS:
                Area = 0.022535 mm^2
                Peak Dynamic = 0.017558 W
                Subthreshold Leakage = 0.000645049 W
                Subthreshold Leakage with power gating = 0.000361038 W
                Gate Leakage = 8.04384e-05 W
                Runtime Dynamic = 0.0019301 W

          Instruction Buffer:
            Area = 0.0513995 mm^2
            Peak Dynamic = 0.946774 W
            Subthreshold Leakage = 0.00108634 W
            Subthreshold Leakage with power gating = 0.000538263 W
            Gate Leakage = 0.000121689 W
            Runtime Dynamic = 0.134913 W

          Instruction Decoder:
            Area = 3.87654 mm^2
            Peak Dynamic = 1.6323 W
            Subthreshold Leakage = 0.299448 W
            Subthreshold Leakage with power gating = 0.123523 W
            Gate Leakage = 0.0366139 W
            Runtime Dynamic = 0.3489 W

      Renaming Unit:
        Area = 0.773725 mm^2
        Peak Dynamic = 7.14742 W
        Subthreshold Leakage = 0.0529538 W
        Subthreshold Leakage with power gating = 0.0280629 W
        Gate Leakage = 0.0156786 W
        Runtime Dynamic = 0.290455 W

          Int Front End RAT:
            Area = 0.241418 mm^2
            Peak Dynamic = 1.25896 W
            Subthreshold Leakage = 0.00453825 W
            Subthreshold Leakage with power gating = 0.0025868 W
            Gate Leakage = 0.000695293 W
            Runtime Dynamic = 0.265161 W

          FP Front End RAT:
            Area = 0.351534 mm^2
            Peak Dynamic = 5.42872 W
            Subthreshold Leakage = 0.0344542 W
            Subthreshold Leakage with power gating = 0.0196389 W
            Gate Leakage = 0.00945921 W
            Runtime Dynamic = 5.57558e-05 W

          Free List:
            Area = 0.0867714 mm^2
            Peak Dynamic = 0.0590361 W
            Subthreshold Leakage = 0.000463845 W
            Subthreshold Leakage with power gating = 0.000269451 W
            Gate Leakage = 7.05318e-05 W
            Runtime Dynamic = 0.0252382 W

      Load Store Unit:
        Area = 10.888 mm^2
        Peak Dynamic = 6.89657 W
        Subthreshold Leakage = 0.310052 W
        Subthreshold Leakage with power gating = 0.167489 W
        Gate Leakage = 0.0478226 W
        Runtime Dynamic = 2.65459 W

          Data Cache:
            Area = 8.0728 mm^2
            Peak Dynamic = 6.19119 W
            Subthreshold Leakage = 0.262501 W
            Subthreshold Leakage with power gating = 0.142511 W
            Gate Leakage = 0.0349272 W
            Runtime Dynamic = 1.71527 W

          LoadQ:
            Area = 0.178621 mm^2
            Peak Dynamic = 0.155495 W
            Subthreshold Leakage = 0.00713781 W
            Subthreshold Leakage with power gating = 0.00406855 W
            Gate Leakage = 0.00110995 W
            Runtime Dynamic = 0.155495 W

          StoreQ:
            Area = 0.685501 mm^2
            Peak Dynamic = 0.391911 W
            Subthreshold Leakage = 0.0269154 W
            Subthreshold Leakage with power gating = 0.0153418 W
            Gate Leakage = 0.00633191 W
            Runtime Dynamic = 0.783824 W

      Memory Management Unit:
        Area = 0.922128 mm^2
        Peak Dynamic = 0.952989 W
        Subthreshold Leakage = 0.0569545 W
        Subthreshold Leakage with power gating = 0.0303382 W
        Gate Leakage = 0.0145682 W
        Runtime Dynamic = 0.183394 W

          Itlb:
            Area = 0.639014 mm^2
            Peak Dynamic = 0.549921 W
            Subthreshold Leakage = 0.0323609 W
            Subthreshold Leakage with power gating = 0.0184457 W
            Gate Leakage = 0.00756163 W
            Runtime Dynamic = 0.0561086 W

          Dtlb:
            Area = 0.189112 mm^2
            Peak Dynamic = 0.123729 W
            Subthreshold Leakage = 0.0110961 W
            Subthreshold Leakage with power gating = 0.00632475 W
            Gate Leakage = 0.00155302 W
            Runtime Dynamic = 0.127286 W

      Execution Unit:
        Area = 17.8249 mm^2
        Peak Dynamic = 25.6081 W
        Subthreshold Leakage = 1.64003 W
        Subthreshold Leakage with power gating = 0.690244 W
        Gate Leakage = 0.274494 W
        Runtime Dynamic = 8.32548 W

          Register Files:
            Area = 1.24273 mm^2
            Peak Dynamic = 0.142251 W
            Subthreshold Leakage = 0.00783917 W
            Subthreshold Leakage with power gating = 0.00348781 W
            Gate Leakage = 0.00118474 W
            Runtime Dynamic = 0.164753 W

              Integer RF:
                Area = 0.773151 mm^2
                Peak Dynamic = 0.142235 W
                Subthreshold Leakage = 0.00479902 W
                Subthreshold Leakage with power gating = 0.00207228 W
                Gate Leakage = 0.000746865 W
                Runtime Dynamic = 0.145471 W

              Floating Point RF:
                Area = 0.469582 mm^2
                Peak Dynamic = 1.59126e-05 W
                Subthreshold Leakage = 0.00304015 W
                Subthreshold Leakage with power gating = 0.00141553 W
                Gate Leakage = 0.000437878 W
                Runtime Dynamic = 0.0192816 W

          Instruction Scheduler:
            Area = 5.63983 mm^2
            Peak Dynamic = 24.5471 W
            Subthreshold Leakage = 0.149298 W
            Subthreshold Leakage with power gating = 0.0750616 W
            Gate Leakage = 0.0319423 W
            Runtime Dynamic = 5.89558 W

              Instruction Window:
                Area = 2.15891 mm^2
                Peak Dynamic = 3.3662 W
                Subthreshold Leakage = 0.063785 W
                Subthreshold Leakage with power gating = 0.0363184 W
                Gate Leakage = 0.0102635 W
                Runtime Dynamic = 0.942104 W

              FP Instruction Window:
                Area = 0.694993 mm^2
                Peak Dynamic = 1.97613 W
                Subthreshold Leakage = 0.0135308 W
                Subthreshold Leakage with power gating = 0.00767348 W
                Gate Leakage = 0.002225 W
                Runtime Dynamic = 0.549467 W

              ROB:
                Area = 2.78593 mm^2
                Peak Dynamic = 19.2048 W
                Subthreshold Leakage = 0.0719825 W
                Subthreshold Leakage with power gating = 0.0310698 W
                Gate Leakage = 0.0194538 W
                Runtime Dynamic = 4.40401 W

          Integer ALUs (Count: 6 ):
            Area = 0.672672 mm^2
            Peak Dynamic = 0.471449 W
            Subthreshold Leakage = 0.271918 W
            Subthreshold Leakage with power gating = 0.112166 W
            Gate Leakage = 0.0436568 W
            Runtime Dynamic = 0.566905 W

          Floating Point Units (FPUs) (Count: 2 ):
            Area = 9.71959 mm^2
            Peak Dynamic = 7.37251e-05 W
            Subthreshold Leakage = 0.982251 W
            Subthreshold Leakage with power gating = 0.405179 W
            Gate Leakage = 0.157702 W
            Runtime Dynamic = 0.303318 W

          Complex ALUs (Mul/Div) (Count: 1 ):
            Area = 0.336336 mm^2
            Peak Dynamic = 0 W
            Subthreshold Leakage = 0.135959 W
            Subthreshold Leakage with power gating = 0.0560831 W
            Gate Leakage = 0.0218284 W
            Runtime Dynamic = 0.20219 W

          Results Broadcast Bus:
            Area Overhead = 0.119693 mm^2
            Peak Dynamic = 0.390085 W
            Subthreshold Leakage = 0.0792689 W
            Subthreshold Leakage with power gating = 0.0326984 W
            Gate Leakage = 0.0127267 W
            Runtime Dynamic = 1.19274 W

*****************************************************************************************
L2
      Area = 47.7594 mm^2
      Peak Dynamic = 1.01686 W
      Subthreshold Leakage = 1.48308 W
      Subthreshold Leakage with power gating = 0.708647 W
      Gate Leakage = 0.100053 W
      Runtime Dynamic = 0.556876 W

*****************************************************************************************
BUSES
      Area = 2.26799 mm^2
      Peak Dynamic = 0 W
      Subthreshold Leakage = 0.044108 W
      Subthreshold Leakage with power gating = 0.0181946 W
      Gate Leakage = 0.0104602 W
      Runtime Dynamic = 0 W

      Bus: 
        Area = 2.26799 mm^2
        Peak Dynamic = 0 W
        Subthreshold Leakage = 0.044108 W
        Subthreshold Leakage with power gating = 0.0181946 W
        Gate Leakage = 0.0104602 W
        Runtime Dynamic = 0 W

*****************************************************************************************
