McPAT (version 1.0 of Aug, 2013) is computing the target processor...
 
Warning: icache array structure cannot satisfy latency constraint.
Warning: Branch Target Buffer array structure cannot satisfy latency constraint.
Warning: ReorderBuffer array structure cannot satisfy latency constraint.
Warning: icache array structure cannot satisfy latency constraint.
Warning: Branch Target Buffer array structure cannot satisfy latency constraint.
Warning: ReorderBuffer array structure cannot satisfy latency constraint.
Warning: icache array structure cannot satisfy latency constraint.
Warning: Branch Target Buffer array structure cannot satisfy latency constraint.
Warning: ReorderBuffer array structure cannot satisfy latency constraint.
Warning: icache array structure cannot satisfy latency constraint.
Warning: Branch Target Buffer array structure cannot satisfy latency constraint.
Warning: ReorderBuffer array structure cannot satisfy latency constraint.
Warning: L2cache array structure cannot satisfy latency constraint.

McPAT (version 1.0 of Aug, 2013) results  (current print level is 5)
*****************************************************************************************
  Technology 65 nm
  Using Long Channel Devices When Appropriate
  Interconnect metal projection= aggressive interconnect technology projection
  Core clock Rate(MHz) 2660

*****************************************************************************************
Processor: 
  Area = 257.967 mm^2
  Peak Power = 243.725 W
  Total Leakage = 20.7317 W
  Peak Dynamic = 222.993 W
  Subthreshold Leakage = 17.7849 W
  Subthreshold Leakage with power gating = 7.84611 W
  Gate Leakage = 2.94686 W
  Runtime Dynamic = 61.2378 W

  Total Cores: 4 cores 
  Device Type= ITRS high performance device type
    Area = 213.475 mm^2
    Peak Dynamic = 222.783 W
    Subthreshold Leakage = 16.645 W
    Subthreshold Leakage with power gating = 7.31305 W
    Gate Leakage = 2.84573 W
    Runtime Dynamic = 61.1392 W

  Total L2s: 
  Device Type= ITRS high performance device type
    Area = 42.2475 mm^2
    Peak Dynamic = 0.210293 W
    Subthreshold Leakage = 1.0962 W
    Subthreshold Leakage with power gating = 0.498137 W
    Gate Leakage = 0.0907798 W
    Runtime Dynamic = 0.0986073 W

  Total NoCs (Network/Bus): 
  Device Type= ITRS high performance device type
    Area = 2.24393 mm^2
    Peak Dynamic = 0 W
    Subthreshold Leakage = 0.0436402 W
    Subthreshold Leakage with power gating = 0.0180016 W
    Gate Leakage = 0.0103493 W
    Runtime Dynamic = 0 W

*****************************************************************************************
Core:
      Area = 53.3689 mm^2
      Peak Dynamic = 57.3377 W
      Subthreshold Leakage = 4.16126 W
      Subthreshold Leakage with power gating = 1.82826 W
      Gate Leakage = 0.711432 W
      Runtime Dynamic = 17.2797 W

      Instruction Fetch Unit:
        Area = 16.6791 mm^2
        Peak Dynamic = 15.083 W
        Subthreshold Leakage = 0.831766 W
        Subthreshold Leakage with power gating = 0.38846 W
        Gate Leakage = 0.155048 W
        Runtime Dynamic = 1.67879 W

          Instruction Cache:
            Area = 6.75661 mm^2
            Peak Dynamic = 10.7727 W
            Subthreshold Leakage = 0.297311 W
            Subthreshold Leakage with power gating = 0.150398 W
            Gate Leakage = 0.0613922 W
            Runtime Dynamic = 0.720496 W

          Branch Target Buffer:
            Area = 5.61054 mm^2
            Peak Dynamic = 1.24445 W
            Subthreshold Leakage = 0.206554 W
            Subthreshold Leakage with power gating = 0.100841 W
            Gate Leakage = 0.050165 W
            Runtime Dynamic = 0.25624 W

          Branch Predictor:
            Area = 0.290038 mm^2
            Peak Dynamic = 0.0860761 W
            Subthreshold Leakage = 0.0138691 W
            Subthreshold Leakage with power gating = 0.00759211 W
            Gate Leakage = 0.0013017 W
            Runtime Dynamic = 0.0185304 W

              Global Predictor:
                Area = 0.0923009 mm^2
                Peak Dynamic = 0.0240659 W
                Subthreshold Leakage = 0.00527373 W
                Subthreshold Leakage with power gating = 0.00288394 W
                Gate Leakage = 0.000476013 W
                Runtime Dynamic = 0.00549145 W

              Local Predictor:
              L1_Local Predictor:
                Area = 0.0548037 mm^2
                Peak Dynamic = 0.0203863 W
                Subthreshold Leakage = 0.00267663 W
                Subthreshold Leakage with power gating = 0.00146319 W
                Gate Leakage = 0.000269239 W
                Runtime Dynamic = 0.00482067 W

              L2_Local Predictor:
                Area = 0.0280973 mm^2
                Peak Dynamic = 0.0103889 W
                Subthreshold Leakage = 0.00135709 W
                Subthreshold Leakage with power gating = 0.00073939 W
                Gate Leakage = 0.000141843 W
                Runtime Dynamic = 0.00245683 W

              Chooser:
                Area = 0.0923009 mm^2
                Peak Dynamic = 0.0240659 W
                Subthreshold Leakage = 0.00527373 W
                Subthreshold Leakage with power gating = 0.00288394 W
                Gate Leakage = 0.000476013 W
                Runtime Dynamic = 0.00549145 W

              RAS:
                Area = 0.022535 mm^2
                Peak Dynamic = 0.017558 W
                Subthreshold Leakage = 0.000645049 W
                Subthreshold Leakage with power gating = 0.000361038 W
                Gate Leakage = 8.04384e-05 W
                Runtime Dynamic = 0.00272683 W

          Instruction Buffer:
            Area = 0.0513995 mm^2
            Peak Dynamic = 0.946774 W
            Subthreshold Leakage = 0.00108634 W
            Subthreshold Leakage with power gating = 0.000538263 W
            Gate Leakage = 0.000121689 W
            Runtime Dynamic = 0.190604 W

          Instruction Decoder:
            Area = 3.87654 mm^2
            Peak Dynamic = 1.6323 W
            Subthreshold Leakage = 0.299448 W
            Subthreshold Leakage with power gating = 0.123523 W
            Gate Leakage = 0.0366139 W
            Runtime Dynamic = 0.492922 W

      Renaming Unit:
        Area = 0.773725 mm^2
        Peak Dynamic = 7.14742 W
        Subthreshold Leakage = 0.0529538 W
        Subthreshold Leakage with power gating = 0.0280629 W
        Gate Leakage = 0.0156786 W
        Runtime Dynamic = 0.733695 W

          Int Front End RAT:
            Area = 0.241418 mm^2
            Peak Dynamic = 1.25896 W
            Subthreshold Leakage = 0.00453825 W
            Subthreshold Leakage with power gating = 0.0025868 W
            Gate Leakage = 0.000695293 W
            Runtime Dynamic = 0.351682 W

          FP Front End RAT:
            Area = 0.351534 mm^2
            Peak Dynamic = 5.42872 W
            Subthreshold Leakage = 0.0344542 W
            Subthreshold Leakage with power gating = 0.0196389 W
            Gate Leakage = 0.00945921 W
            Runtime Dynamic = 0.342631 W

          Free List:
            Area = 0.0867714 mm^2
            Peak Dynamic = 0.0590361 W
            Subthreshold Leakage = 0.000463845 W
            Subthreshold Leakage with power gating = 0.000269451 W
            Gate Leakage = 7.05318e-05 W
            Runtime Dynamic = 0.0393814 W

      Load Store Unit:
        Area = 10.888 mm^2
        Peak Dynamic = 7.33682 W
        Subthreshold Leakage = 0.310052 W
        Subthreshold Leakage with power gating = 0.167489 W
        Gate Leakage = 0.0478226 W
        Runtime Dynamic = 2.71467 W

          Data Cache:
            Area = 8.0728 mm^2
            Peak Dynamic = 6.56743 W
            Subthreshold Leakage = 0.262501 W
            Subthreshold Leakage with power gating = 0.142511 W
            Gate Leakage = 0.0349272 W
            Runtime Dynamic = 1.69011 W

          LoadQ:
            Area = 0.178621 mm^2
            Peak Dynamic = 0.169606 W
            Subthreshold Leakage = 0.00713781 W
            Subthreshold Leakage with power gating = 0.00406855 W
            Gate Leakage = 0.00110995 W
            Runtime Dynamic = 0.169606 W

          StoreQ:
            Area = 0.685501 mm^2
            Peak Dynamic = 0.427478 W
            Subthreshold Leakage = 0.0269154 W
            Subthreshold Leakage with power gating = 0.0153418 W
            Gate Leakage = 0.00633191 W
            Runtime Dynamic = 0.854956 W

      Memory Management Unit:
        Area = 0.922128 mm^2
        Peak Dynamic = 1.06466 W
        Subthreshold Leakage = 0.0569545 W
        Subthreshold Leakage with power gating = 0.0303382 W
        Gate Leakage = 0.0145682 W
        Runtime Dynamic = 0.242637 W

          Itlb:
            Area = 0.639014 mm^2
            Peak Dynamic = 0.643191 W
            Subthreshold Leakage = 0.0323609 W
            Subthreshold Leakage with power gating = 0.0184457 W
            Gate Leakage = 0.00756163 W
            Runtime Dynamic = 0.107381 W

          Dtlb:
            Area = 0.189112 mm^2
            Peak Dynamic = 0.134958 W
            Subthreshold Leakage = 0.0110961 W
            Subthreshold Leakage with power gating = 0.00632475 W
            Gate Leakage = 0.00155302 W
            Runtime Dynamic = 0.135256 W

      Execution Unit:
        Area = 17.8249 mm^2
        Peak Dynamic = 26.7059 W
        Subthreshold Leakage = 1.64003 W
        Subthreshold Leakage with power gating = 0.690244 W
        Gate Leakage = 0.274494 W
        Runtime Dynamic = 11.9099 W

          Register Files:
            Area = 1.24273 mm^2
            Peak Dynamic = 0.324782 W
            Subthreshold Leakage = 0.00783917 W
            Subthreshold Leakage with power gating = 0.00348781 W
            Gate Leakage = 0.00118474 W
            Runtime Dynamic = 0.232761 W

              Integer RF:
                Area = 0.773151 mm^2
                Peak Dynamic = 0.229133 W
                Subthreshold Leakage = 0.00479902 W
                Subthreshold Leakage with power gating = 0.00207228 W
                Gate Leakage = 0.000746865 W
                Runtime Dynamic = 0.20552 W

              Floating Point RF:
                Area = 0.469582 mm^2
                Peak Dynamic = 0.0956491 W
                Subthreshold Leakage = 0.00304015 W
                Subthreshold Leakage with power gating = 0.00141553 W
                Gate Leakage = 0.000437878 W
                Runtime Dynamic = 0.0272408 W

          Instruction Scheduler:
            Area = 5.63983 mm^2
            Peak Dynamic = 24.5471 W
            Subthreshold Leakage = 0.149298 W
            Subthreshold Leakage with power gating = 0.0750616 W
            Gate Leakage = 0.0319423 W
            Runtime Dynamic = 8.58285 W

              Instruction Window:
                Area = 2.15891 mm^2
                Peak Dynamic = 3.3662 W
                Subthreshold Leakage = 0.063785 W
                Subthreshold Leakage with power gating = 0.0363184 W
                Gate Leakage = 0.0102635 W
                Runtime Dynamic = 1.33099 W

              FP Instruction Window:
                Area = 0.694993 mm^2
                Peak Dynamic = 1.97613 W
                Subthreshold Leakage = 0.0135308 W
                Subthreshold Leakage with power gating = 0.00767348 W
                Gate Leakage = 0.002225 W
                Runtime Dynamic = 0.77628 W

              ROB:
                Area = 2.78593 mm^2
                Peak Dynamic = 19.2048 W
                Subthreshold Leakage = 0.0719825 W
                Subthreshold Leakage with power gating = 0.0310698 W
                Gate Leakage = 0.0194538 W
                Runtime Dynamic = 6.47557 W

          Integer ALUs (Count: 6 ):
            Area = 0.672672 mm^2
            Peak Dynamic = 0.596465 W
            Subthreshold Leakage = 0.271918 W
            Subthreshold Leakage with power gating = 0.112166 W
            Gate Leakage = 0.0436568 W
            Runtime Dynamic = 0.644545 W

          Floating Point Units (FPUs) (Count: 2 ):
            Area = 9.71959 mm^2
            Peak Dynamic = 0.443154 W
            Subthreshold Leakage = 0.982251 W
            Subthreshold Leakage with power gating = 0.405179 W
            Gate Leakage = 0.157702 W
            Runtime Dynamic = 0.505721 W

          Complex ALUs (Mul/Div) (Count: 1 ):
            Area = 0.336336 mm^2
            Peak Dynamic = 0.0689025 W
            Subthreshold Leakage = 0.135959 W
            Subthreshold Leakage with power gating = 0.0560831 W
            Gate Leakage = 0.0218284 W
            Runtime Dynamic = 0.260135 W

          Results Broadcast Bus:
            Area Overhead = 0.119693 mm^2
            Peak Dynamic = 0.653214 W
            Subthreshold Leakage = 0.0792689 W
            Subthreshold Leakage with power gating = 0.0326984 W
            Gate Leakage = 0.0127267 W
            Runtime Dynamic = 1.68389 W

*****************************************************************************************
Core:
      Area = 53.3689 mm^2
      Peak Dynamic = 56.9301 W
      Subthreshold Leakage = 4.16126 W
      Subthreshold Leakage with power gating = 1.82826 W
      Gate Leakage = 0.711432 W
      Runtime Dynamic = 16.4523 W

      Instruction Fetch Unit:
        Area = 16.6791 mm^2
        Peak Dynamic = 15.083 W
        Subthreshold Leakage = 0.831766 W
        Subthreshold Leakage with power gating = 0.38846 W
        Gate Leakage = 0.155048 W
        Runtime Dynamic = 1.48675 W

          Instruction Cache:
            Area = 6.75661 mm^2
            Peak Dynamic = 10.7727 W
            Subthreshold Leakage = 0.297311 W
            Subthreshold Leakage with power gating = 0.150398 W
            Gate Leakage = 0.0613922 W
            Runtime Dynamic = 0.610068 W

          Branch Target Buffer:
            Area = 5.61054 mm^2
            Peak Dynamic = 1.24445 W
            Subthreshold Leakage = 0.206554 W
            Subthreshold Leakage with power gating = 0.100841 W
            Gate Leakage = 0.050165 W
            Runtime Dynamic = 0.217403 W

          Branch Predictor:
            Area = 0.290038 mm^2
            Peak Dynamic = 0.0860761 W
            Subthreshold Leakage = 0.0138691 W
            Subthreshold Leakage with power gating = 0.00759211 W
            Gate Leakage = 0.0013017 W
            Runtime Dynamic = 0.0158966 W

              Global Predictor:
                Area = 0.0923009 mm^2
                Peak Dynamic = 0.0240659 W
                Subthreshold Leakage = 0.00527373 W
                Subthreshold Leakage with power gating = 0.00288394 W
                Gate Leakage = 0.000476013 W
                Runtime Dynamic = 0.00463434 W

              Local Predictor:
              L1_Local Predictor:
                Area = 0.0548037 mm^2
                Peak Dynamic = 0.0203863 W
                Subthreshold Leakage = 0.00267663 W
                Subthreshold Leakage with power gating = 0.00146319 W
                Gate Leakage = 0.000269239 W
                Runtime Dynamic = 0.0040612 W

              L2_Local Predictor:
                Area = 0.0280973 mm^2
                Peak Dynamic = 0.0103889 W
                Subthreshold Leakage = 0.00135709 W
                Subthreshold Leakage with power gating = 0.00073939 W
                Gate Leakage = 0.000141843 W
                Runtime Dynamic = 0.00206977 W

              Chooser:
                Area = 0.0923009 mm^2
                Peak Dynamic = 0.0240659 W
                Subthreshold Leakage = 0.00527373 W
                Subthreshold Leakage with power gating = 0.00288394 W
                Gate Leakage = 0.000476013 W
                Runtime Dynamic = 0.00463434 W

              RAS:
                Area = 0.022535 mm^2
                Peak Dynamic = 0.017558 W
                Subthreshold Leakage = 0.000645049 W
                Subthreshold Leakage with power gating = 0.000361038 W
                Gate Leakage = 8.04384e-05 W
                Runtime Dynamic = 0.00256666 W

          Instruction Buffer:
            Area = 0.0513995 mm^2
            Peak Dynamic = 0.946774 W
            Subthreshold Leakage = 0.00108634 W
            Subthreshold Leakage with power gating = 0.000538263 W
            Gate Leakage = 0.000121689 W
            Runtime Dynamic = 0.179409 W

          Instruction Decoder:
            Area = 3.87654 mm^2
            Peak Dynamic = 1.6323 W
            Subthreshold Leakage = 0.299448 W
            Subthreshold Leakage with power gating = 0.123523 W
            Gate Leakage = 0.0366139 W
            Runtime Dynamic = 0.463969 W

      Renaming Unit:
        Area = 0.773725 mm^2
        Peak Dynamic = 7.14742 W
        Subthreshold Leakage = 0.0529538 W
        Subthreshold Leakage with power gating = 0.0280629 W
        Gate Leakage = 0.0156786 W
        Runtime Dynamic = 0.778518 W

          Int Front End RAT:
            Area = 0.241418 mm^2
            Peak Dynamic = 1.25896 W
            Subthreshold Leakage = 0.00453825 W
            Subthreshold Leakage with power gating = 0.0025868 W
            Gate Leakage = 0.000695293 W
            Runtime Dynamic = 0.32988 W

          FP Front End RAT:
            Area = 0.351534 mm^2
            Peak Dynamic = 5.42872 W
            Subthreshold Leakage = 0.0344542 W
            Subthreshold Leakage with power gating = 0.0196389 W
            Gate Leakage = 0.00945921 W
            Runtime Dynamic = 0.410611 W

          Free List:
            Area = 0.0867714 mm^2
            Peak Dynamic = 0.0590361 W
            Subthreshold Leakage = 0.000463845 W
            Subthreshold Leakage with power gating = 0.000269451 W
            Gate Leakage = 7.05318e-05 W
            Runtime Dynamic = 0.0380264 W

      Load Store Unit:
        Area = 10.888 mm^2
        Peak Dynamic = 6.90238 W
        Subthreshold Leakage = 0.310052 W
        Subthreshold Leakage with power gating = 0.167489 W
        Gate Leakage = 0.0478226 W
        Runtime Dynamic = 2.4981 W

          Data Cache:
            Area = 8.0728 mm^2
            Peak Dynamic = 6.19615 W
            Subthreshold Leakage = 0.262501 W
            Subthreshold Leakage with power gating = 0.142511 W
            Gate Leakage = 0.0349272 W
            Runtime Dynamic = 1.55766 W

          LoadQ:
            Area = 0.178621 mm^2
            Peak Dynamic = 0.155681 W
            Subthreshold Leakage = 0.00713781 W
            Subthreshold Leakage with power gating = 0.00406855 W
            Gate Leakage = 0.00110995 W
            Runtime Dynamic = 0.155681 W

          StoreQ:
            Area = 0.685501 mm^2
            Peak Dynamic = 0.392381 W
            Subthreshold Leakage = 0.0269154 W
            Subthreshold Leakage with power gating = 0.0153418 W
            Gate Leakage = 0.00633191 W
            Runtime Dynamic = 0.784761 W

      Memory Management Unit:
        Area = 0.922128 mm^2
        Peak Dynamic = 1.0465 W
        Subthreshold Leakage = 0.0569545 W
        Subthreshold Leakage with power gating = 0.0303382 W
        Gate Leakage = 0.0145682 W
        Runtime Dynamic = 0.217269 W

          Itlb:
            Area = 0.639014 mm^2
            Peak Dynamic = 0.643191 W
            Subthreshold Leakage = 0.0323609 W
            Subthreshold Leakage with power gating = 0.0184457 W
            Gate Leakage = 0.00756163 W
            Runtime Dynamic = 0.0929657 W

          Dtlb:
            Area = 0.189112 mm^2
            Peak Dynamic = 0.123878 W
            Subthreshold Leakage = 0.0110961 W
            Subthreshold Leakage with power gating = 0.00632475 W
            Gate Leakage = 0.00155302 W
            Runtime Dynamic = 0.124304 W

      Execution Unit:
        Area = 17.8249 mm^2
        Peak Dynamic = 26.7508 W
        Subthreshold Leakage = 1.64003 W
        Subthreshold Leakage with power gating = 0.690244 W
        Gate Leakage = 0.274494 W
        Runtime Dynamic = 11.4717 W

          Register Files:
            Area = 1.24273 mm^2
            Peak Dynamic = 0.337911 W
            Subthreshold Leakage = 0.00783917 W
            Subthreshold Leakage with power gating = 0.00348781 W
            Gate Leakage = 0.00118474 W
            Runtime Dynamic = 0.219089 W

              Integer RF:
                Area = 0.773151 mm^2
                Peak Dynamic = 0.223285 W
                Subthreshold Leakage = 0.00479902 W
                Subthreshold Leakage with power gating = 0.00207228 W
                Gate Leakage = 0.000746865 W
                Runtime Dynamic = 0.193448 W

              Floating Point RF:
                Area = 0.469582 mm^2
                Peak Dynamic = 0.114627 W
                Subthreshold Leakage = 0.00304015 W
                Subthreshold Leakage with power gating = 0.00141553 W
                Gate Leakage = 0.000437878 W
                Runtime Dynamic = 0.0256407 W

          Instruction Scheduler:
            Area = 5.63983 mm^2
            Peak Dynamic = 24.5471 W
            Subthreshold Leakage = 0.149298 W
            Subthreshold Leakage with power gating = 0.0750616 W
            Gate Leakage = 0.0319423 W
            Runtime Dynamic = 8.15603 W

              Instruction Window:
                Area = 2.15891 mm^2
                Peak Dynamic = 3.3662 W
                Subthreshold Leakage = 0.063785 W
                Subthreshold Leakage with power gating = 0.0363184 W
                Gate Leakage = 0.0102635 W
                Runtime Dynamic = 1.25281 W

              FP Instruction Window:
                Area = 0.694993 mm^2
                Peak Dynamic = 1.97613 W
                Subthreshold Leakage = 0.0135308 W
                Subthreshold Leakage with power gating = 0.00767348 W
                Gate Leakage = 0.002225 W
                Runtime Dynamic = 0.730683 W

              ROB:
                Area = 2.78593 mm^2
                Peak Dynamic = 19.2048 W
                Subthreshold Leakage = 0.0719825 W
                Subthreshold Leakage with power gating = 0.0310698 W
                Gate Leakage = 0.0194538 W
                Runtime Dynamic = 6.17254 W

          Integer ALUs (Count: 6 ):
            Area = 0.672672 mm^2
            Peak Dynamic = 0.543531 W
            Subthreshold Leakage = 0.271918 W
            Subthreshold Leakage with power gating = 0.112166 W
            Gate Leakage = 0.0436568 W
            Runtime Dynamic = 0.614099 W

          Floating Point Units (FPUs) (Count: 2 ):
            Area = 9.71959 mm^2
            Peak Dynamic = 0.53108 W
            Subthreshold Leakage = 0.982251 W
            Subthreshold Leakage with power gating = 0.405179 W
            Gate Leakage = 0.157702 W
            Runtime Dynamic = 0.545886 W

          Complex ALUs (Mul/Div) (Count: 1 ):
            Area = 0.336336 mm^2
            Peak Dynamic = 0.083083 W
            Subthreshold Leakage = 0.135959 W
            Subthreshold Leakage with power gating = 0.0560831 W
            Gate Leakage = 0.0218284 W
            Runtime Dynamic = 0.27206 W

          Results Broadcast Bus:
            Area Overhead = 0.119693 mm^2
            Peak Dynamic = 0.642281 W
            Subthreshold Leakage = 0.0792689 W
            Subthreshold Leakage with power gating = 0.0326984 W
            Gate Leakage = 0.0127267 W
            Runtime Dynamic = 1.66454 W

*****************************************************************************************
Core:
      Area = 53.3689 mm^2
      Peak Dynamic = 57.4607 W
      Subthreshold Leakage = 4.16126 W
      Subthreshold Leakage with power gating = 1.82826 W
      Gate Leakage = 0.711432 W
      Runtime Dynamic = 16.5786 W

      Instruction Fetch Unit:
        Area = 16.6791 mm^2
        Peak Dynamic = 15.083 W
        Subthreshold Leakage = 0.831766 W
        Subthreshold Leakage with power gating = 0.38846 W
        Gate Leakage = 0.155048 W
        Runtime Dynamic = 1.43356 W

          Instruction Cache:
            Area = 6.75661 mm^2
            Peak Dynamic = 10.7727 W
            Subthreshold Leakage = 0.297311 W
            Subthreshold Leakage with power gating = 0.150398 W
            Gate Leakage = 0.0613922 W
            Runtime Dynamic = 0.570412 W

          Branch Target Buffer:
            Area = 5.61054 mm^2
            Peak Dynamic = 1.24445 W
            Subthreshold Leakage = 0.206554 W
            Subthreshold Leakage with power gating = 0.100841 W
            Gate Leakage = 0.050165 W
            Runtime Dynamic = 0.234295 W

          Branch Predictor:
            Area = 0.290038 mm^2
            Peak Dynamic = 0.0860761 W
            Subthreshold Leakage = 0.0138691 W
            Subthreshold Leakage with power gating = 0.00759211 W
            Gate Leakage = 0.0013017 W
            Runtime Dynamic = 0.0168967 W

              Global Predictor:
                Area = 0.0923009 mm^2
                Peak Dynamic = 0.0240659 W
                Subthreshold Leakage = 0.00527373 W
                Subthreshold Leakage with power gating = 0.00288394 W
                Gate Leakage = 0.000476013 W
                Runtime Dynamic = 0.00502282 W

              Local Predictor:
              L1_Local Predictor:
                Area = 0.0548037 mm^2
                Peak Dynamic = 0.0203863 W
                Subthreshold Leakage = 0.00267663 W
                Subthreshold Leakage with power gating = 0.00146319 W
                Gate Leakage = 0.000269239 W
                Runtime Dynamic = 0.00440975 W

              L2_Local Predictor:
                Area = 0.0280973 mm^2
                Peak Dynamic = 0.0103889 W
                Subthreshold Leakage = 0.00135709 W
                Subthreshold Leakage with power gating = 0.00073939 W
                Gate Leakage = 0.000141843 W
                Runtime Dynamic = 0.00224741 W

              Chooser:
                Area = 0.0923009 mm^2
                Peak Dynamic = 0.0240659 W
                Subthreshold Leakage = 0.00527373 W
                Subthreshold Leakage with power gating = 0.00288394 W
                Gate Leakage = 0.000476013 W
                Runtime Dynamic = 0.00502282 W

              RAS:
                Area = 0.022535 mm^2
                Peak Dynamic = 0.017558 W
                Subthreshold Leakage = 0.000645049 W
                Subthreshold Leakage with power gating = 0.000361038 W
                Gate Leakage = 8.04384e-05 W
                Runtime Dynamic = 0.00244131 W

          Instruction Buffer:
            Area = 0.0513995 mm^2
            Peak Dynamic = 0.946774 W
            Subthreshold Leakage = 0.00108634 W
            Subthreshold Leakage with power gating = 0.000538263 W
            Gate Leakage = 0.000121689 W
            Runtime Dynamic = 0.170646 W

          Instruction Decoder:
            Area = 3.87654 mm^2
            Peak Dynamic = 1.6323 W
            Subthreshold Leakage = 0.299448 W
            Subthreshold Leakage with power gating = 0.123523 W
            Gate Leakage = 0.0366139 W
            Runtime Dynamic = 0.441309 W

      Renaming Unit:
        Area = 0.773725 mm^2
        Peak Dynamic = 7.14742 W
        Subthreshold Leakage = 0.0529538 W
        Subthreshold Leakage with power gating = 0.0280629 W
        Gate Leakage = 0.0156786 W
        Runtime Dynamic = 0.740744 W

          Int Front End RAT:
            Area = 0.241418 mm^2
            Peak Dynamic = 1.25896 W
            Subthreshold Leakage = 0.00453825 W
            Subthreshold Leakage with power gating = 0.0025868 W
            Gate Leakage = 0.000695293 W
            Runtime Dynamic = 0.311803 W

          FP Front End RAT:
            Area = 0.351534 mm^2
            Peak Dynamic = 5.42872 W
            Subthreshold Leakage = 0.0344542 W
            Subthreshold Leakage with power gating = 0.0196389 W
            Gate Leakage = 0.00945921 W
            Runtime Dynamic = 0.392748 W

          Free List:
            Area = 0.0867714 mm^2
            Peak Dynamic = 0.0590361 W
            Subthreshold Leakage = 0.000463845 W
            Subthreshold Leakage with power gating = 0.000269451 W
            Gate Leakage = 7.05318e-05 W
            Runtime Dynamic = 0.036193 W

      Load Store Unit:
        Area = 10.888 mm^2
        Peak Dynamic = 7.51158 W
        Subthreshold Leakage = 0.310052 W
        Subthreshold Leakage with power gating = 0.167489 W
        Gate Leakage = 0.0478226 W
        Runtime Dynamic = 2.80771 W

          Data Cache:
            Area = 8.0728 mm^2
            Peak Dynamic = 6.71678 W
            Subthreshold Leakage = 0.262501 W
            Subthreshold Leakage with power gating = 0.142511 W
            Gate Leakage = 0.0349272 W
            Runtime Dynamic = 1.74931 W

          LoadQ:
            Area = 0.178621 mm^2
            Peak Dynamic = 0.175208 W
            Subthreshold Leakage = 0.00713781 W
            Subthreshold Leakage with power gating = 0.00406855 W
            Gate Leakage = 0.00110995 W
            Runtime Dynamic = 0.175207 W

          StoreQ:
            Area = 0.685501 mm^2
            Peak Dynamic = 0.441596 W
            Subthreshold Leakage = 0.0269154 W
            Subthreshold Leakage with power gating = 0.0153418 W
            Gate Leakage = 0.00633191 W
            Runtime Dynamic = 0.883192 W

      Memory Management Unit:
        Area = 0.922128 mm^2
        Peak Dynamic = 1.07196 W
        Subthreshold Leakage = 0.0569545 W
        Subthreshold Leakage with power gating = 0.0303382 W
        Gate Leakage = 0.0145682 W
        Runtime Dynamic = 0.226753 W

          Itlb:
            Area = 0.639014 mm^2
            Peak Dynamic = 0.643191 W
            Subthreshold Leakage = 0.0323609 W
            Subthreshold Leakage with power gating = 0.0184457 W
            Gate Leakage = 0.00756163 W
            Runtime Dynamic = 0.0869102 W

          Dtlb:
            Area = 0.189112 mm^2
            Peak Dynamic = 0.139415 W
            Subthreshold Leakage = 0.0110961 W
            Subthreshold Leakage with power gating = 0.00632475 W
            Gate Leakage = 0.00155302 W
            Runtime Dynamic = 0.139843 W

      Execution Unit:
        Area = 17.8249 mm^2
        Peak Dynamic = 26.6467 W
        Subthreshold Leakage = 1.64003 W
        Subthreshold Leakage with power gating = 0.690244 W
        Gate Leakage = 0.274494 W
        Runtime Dynamic = 11.3698 W

          Register Files:
            Area = 1.24273 mm^2
            Peak Dynamic = 0.322079 W
            Subthreshold Leakage = 0.00783917 W
            Subthreshold Leakage with power gating = 0.00348781 W
            Gate Leakage = 0.00118474 W
            Runtime Dynamic = 0.208389 W

              Integer RF:
                Area = 0.773151 mm^2
                Peak Dynamic = 0.212439 W
                Subthreshold Leakage = 0.00479902 W
                Subthreshold Leakage with power gating = 0.00207228 W
                Gate Leakage = 0.000746865 W
                Runtime Dynamic = 0.184 W

              Floating Point RF:
                Area = 0.469582 mm^2
                Peak Dynamic = 0.10964 W
                Subthreshold Leakage = 0.00304015 W
                Subthreshold Leakage with power gating = 0.00141553 W
                Gate Leakage = 0.000437878 W
                Runtime Dynamic = 0.0243885 W

          Instruction Scheduler:
            Area = 5.63983 mm^2
            Peak Dynamic = 24.5471 W
            Subthreshold Leakage = 0.149298 W
            Subthreshold Leakage with power gating = 0.0750616 W
            Gate Leakage = 0.0319423 W
            Runtime Dynamic = 8.09368 W

              Instruction Window:
                Area = 2.15891 mm^2
                Peak Dynamic = 3.3662 W
                Subthreshold Leakage = 0.063785 W
                Subthreshold Leakage with power gating = 0.0363184 W
                Gate Leakage = 0.0102635 W
                Runtime Dynamic = 1.19163 W

              FP Instruction Window:
                Area = 0.694993 mm^2
                Peak Dynamic = 1.97613 W
                Subthreshold Leakage = 0.0135308 W
                Subthreshold Leakage with power gating = 0.00767348 W
                Gate Leakage = 0.002225 W
                Runtime Dynamic = 0.694997 W

              ROB:
                Area = 2.78593 mm^2
                Peak Dynamic = 19.2048 W
                Subthreshold Leakage = 0.0719825 W
                Subthreshold Leakage with power gating = 0.0310698 W
                Gate Leakage = 0.0194538 W
                Runtime Dynamic = 6.20705 W

          Integer ALUs (Count: 6 ):
            Area = 0.672672 mm^2
            Peak Dynamic = 0.51654 W
            Subthreshold Leakage = 0.271918 W
            Subthreshold Leakage with power gating = 0.112166 W
            Gate Leakage = 0.0436568 W
            Runtime Dynamic = 0.614204 W

          Floating Point Units (FPUs) (Count: 2 ):
            Area = 9.71959 mm^2
            Peak Dynamic = 0.507976 W
            Subthreshold Leakage = 0.982251 W
            Subthreshold Leakage with power gating = 0.405179 W
            Gate Leakage = 0.157702 W
            Runtime Dynamic = 0.535331 W

          Complex ALUs (Mul/Div) (Count: 1 ):
            Area = 0.336336 mm^2
            Peak Dynamic = 0.0792969 W
            Subthreshold Leakage = 0.135959 W
            Subthreshold Leakage with power gating = 0.0560831 W
            Gate Leakage = 0.0218284 W
            Runtime Dynamic = 0.268876 W

          Results Broadcast Bus:
            Area Overhead = 0.119693 mm^2
            Peak Dynamic = 0.611174 W
            Subthreshold Leakage = 0.0792689 W
            Subthreshold Leakage with power gating = 0.0326984 W
            Gate Leakage = 0.0127267 W
            Runtime Dynamic = 1.64934 W

*****************************************************************************************
Core:
      Area = 53.3689 mm^2
      Peak Dynamic = 51.0544 W
      Subthreshold Leakage = 4.16126 W
      Subthreshold Leakage with power gating = 1.82826 W
      Gate Leakage = 0.711432 W
      Runtime Dynamic = 10.8286 W

      Instruction Fetch Unit:
        Area = 16.6791 mm^2
        Peak Dynamic = 12.0921 W
        Subthreshold Leakage = 0.831766 W
        Subthreshold Leakage with power gating = 0.38846 W
        Gate Leakage = 0.155048 W
        Runtime Dynamic = 0.880133 W

          Instruction Cache:
            Area = 6.75661 mm^2
            Peak Dynamic = 7.88903 W
            Subthreshold Leakage = 0.297311 W
            Subthreshold Leakage with power gating = 0.150398 W
            Gate Leakage = 0.0613922 W
            Runtime Dynamic = 0.348845 W

          Branch Target Buffer:
            Area = 5.61054 mm^2
            Peak Dynamic = 1.24445 W
            Subthreshold Leakage = 0.206554 W
            Subthreshold Leakage with power gating = 0.100841 W
            Gate Leakage = 0.050165 W
            Runtime Dynamic = 0.108373 W

          Branch Predictor:
            Area = 0.290038 mm^2
            Peak Dynamic = 0.0860761 W
            Subthreshold Leakage = 0.0138691 W
            Subthreshold Leakage with power gating = 0.00759211 W
            Gate Leakage = 0.0013017 W
            Runtime Dynamic = 0.00851662 W

              Global Predictor:
                Area = 0.0923009 mm^2
                Peak Dynamic = 0.0240659 W
                Subthreshold Leakage = 0.00527373 W
                Subthreshold Leakage with power gating = 0.00288394 W
                Gate Leakage = 0.000476013 W
                Runtime Dynamic = 0.00237931 W

              Local Predictor:
              L1_Local Predictor:
                Area = 0.0548037 mm^2
                Peak Dynamic = 0.0203863 W
                Subthreshold Leakage = 0.00267663 W
                Subthreshold Leakage with power gating = 0.00146319 W
                Gate Leakage = 0.000269239 W
                Runtime Dynamic = 0.00210481 W

              L2_Local Predictor:
                Area = 0.0280973 mm^2
                Peak Dynamic = 0.0103889 W
                Subthreshold Leakage = 0.00135709 W
                Subthreshold Leakage with power gating = 0.00073939 W
                Gate Leakage = 0.000141843 W
                Runtime Dynamic = 0.00107273 W

              Chooser:
                Area = 0.0923009 mm^2
                Peak Dynamic = 0.0240659 W
                Subthreshold Leakage = 0.00527373 W
                Subthreshold Leakage with power gating = 0.00288394 W
                Gate Leakage = 0.000476013 W
                Runtime Dynamic = 0.00237931 W

              RAS:
                Area = 0.022535 mm^2
                Peak Dynamic = 0.017558 W
                Subthreshold Leakage = 0.000645049 W
                Subthreshold Leakage with power gating = 0.000361038 W
                Gate Leakage = 8.04384e-05 W
                Runtime Dynamic = 0.00165318 W

          Instruction Buffer:
            Area = 0.0513995 mm^2
            Peak Dynamic = 0.946774 W
            Subthreshold Leakage = 0.00108634 W
            Subthreshold Leakage with power gating = 0.000538263 W
            Gate Leakage = 0.000121689 W
            Runtime Dynamic = 0.115557 W

          Instruction Decoder:
            Area = 3.87654 mm^2
            Peak Dynamic = 1.6323 W
            Subthreshold Leakage = 0.299448 W
            Subthreshold Leakage with power gating = 0.123523 W
            Gate Leakage = 0.0366139 W
            Runtime Dynamic = 0.298842 W

      Renaming Unit:
        Area = 0.773725 mm^2
        Peak Dynamic = 7.14742 W
        Subthreshold Leakage = 0.0529538 W
        Subthreshold Leakage with power gating = 0.0280629 W
        Gate Leakage = 0.0156786 W
        Runtime Dynamic = 0.655572 W

          Int Front End RAT:
            Area = 0.241418 mm^2
            Peak Dynamic = 1.25896 W
            Subthreshold Leakage = 0.00453825 W
            Subthreshold Leakage with power gating = 0.0025868 W
            Gate Leakage = 0.000695293 W
            Runtime Dynamic = 0.209753 W

          FP Front End RAT:
            Area = 0.351534 mm^2
            Peak Dynamic = 5.42872 W
            Subthreshold Leakage = 0.0344542 W
            Subthreshold Leakage with power gating = 0.0196389 W
            Gate Leakage = 0.00945921 W
            Runtime Dynamic = 0.419638 W

          Free List:
            Area = 0.0867714 mm^2
            Peak Dynamic = 0.0590361 W
            Subthreshold Leakage = 0.000463845 W
            Subthreshold Leakage with power gating = 0.000269451 W
            Gate Leakage = 7.05318e-05 W
            Runtime Dynamic = 0.0261801 W

      Load Store Unit:
        Area = 10.888 mm^2
        Peak Dynamic = 4.76408 W
        Subthreshold Leakage = 0.310052 W
        Subthreshold Leakage with power gating = 0.167489 W
        Gate Leakage = 0.0478226 W
        Runtime Dynamic = 1.40008 W

          Data Cache:
            Area = 8.0728 mm^2
            Peak Dynamic = 4.36878 W
            Subthreshold Leakage = 0.262501 W
            Subthreshold Leakage with power gating = 0.142511 W
            Gate Leakage = 0.0349272 W
            Runtime Dynamic = 0.873672 W

          LoadQ:
            Area = 0.178621 mm^2
            Peak Dynamic = 0.0871421 W
            Subthreshold Leakage = 0.00713781 W
            Subthreshold Leakage with power gating = 0.00406855 W
            Gate Leakage = 0.00110995 W
            Runtime Dynamic = 0.0871422 W

          StoreQ:
            Area = 0.685501 mm^2
            Peak Dynamic = 0.219635 W
            Subthreshold Leakage = 0.0269154 W
            Subthreshold Leakage with power gating = 0.0153418 W
            Gate Leakage = 0.00633191 W
            Runtime Dynamic = 0.43927 W

      Memory Management Unit:
        Area = 0.922128 mm^2
        Peak Dynamic = 0.784979 W
        Subthreshold Leakage = 0.0569545 W
        Subthreshold Leakage with power gating = 0.0303382 W
        Gate Leakage = 0.0145682 W
        Runtime Dynamic = 0.122357 W

          Itlb:
            Area = 0.639014 mm^2
            Peak Dynamic = 0.471021 W
            Subthreshold Leakage = 0.0323609 W
            Subthreshold Leakage with power gating = 0.0184457 W
            Gate Leakage = 0.00756163 W
            Runtime Dynamic = 0.0526513 W

          Dtlb:
            Area = 0.189112 mm^2
            Peak Dynamic = 0.0693403 W
            Subthreshold Leakage = 0.0110961 W
            Subthreshold Leakage with power gating = 0.00632475 W
            Gate Leakage = 0.00155302 W
            Runtime Dynamic = 0.0697059 W

      Execution Unit:
        Area = 17.8249 mm^2
        Peak Dynamic = 26.2659 W
        Subthreshold Leakage = 1.64003 W
        Subthreshold Leakage with power gating = 0.690244 W
        Gate Leakage = 0.274494 W
        Runtime Dynamic = 7.77042 W

          Register Files:
            Area = 1.24273 mm^2
            Peak Dynamic = 0.273816 W
            Subthreshold Leakage = 0.00783917 W
            Subthreshold Leakage with power gating = 0.00348781 W
            Gate Leakage = 0.00118474 W
            Runtime Dynamic = 0.141115 W

              Integer RF:
                Area = 0.773151 mm^2
                Peak Dynamic = 0.156669 W
                Subthreshold Leakage = 0.00479902 W
                Subthreshold Leakage with power gating = 0.00207228 W
                Gate Leakage = 0.000746865 W
                Runtime Dynamic = 0.1246 W

              Floating Point RF:
                Area = 0.469582 mm^2
                Peak Dynamic = 0.117146 W
                Subthreshold Leakage = 0.00304015 W
                Subthreshold Leakage with power gating = 0.00141553 W
                Gate Leakage = 0.000437878 W
                Runtime Dynamic = 0.0165152 W

          Instruction Scheduler:
            Area = 5.63983 mm^2
            Peak Dynamic = 24.5471 W
            Subthreshold Leakage = 0.149298 W
            Subthreshold Leakage with power gating = 0.0750616 W
            Gate Leakage = 0.0319423 W
            Runtime Dynamic = 5.2357 W

              Instruction Window:
                Area = 2.15891 mm^2
                Peak Dynamic = 3.3662 W
                Subthreshold Leakage = 0.063785 W
                Subthreshold Leakage with power gating = 0.0363184 W
                Gate Leakage = 0.0102635 W
                Runtime Dynamic = 0.806936 W

              FP Instruction Window:
                Area = 0.694993 mm^2
                Peak Dynamic = 1.97613 W
                Subthreshold Leakage = 0.0135308 W
                Subthreshold Leakage with power gating = 0.00767348 W
                Gate Leakage = 0.002225 W
                Runtime Dynamic = 0.470632 W

              ROB:
                Area = 2.78593 mm^2
                Peak Dynamic = 19.2048 W
                Subthreshold Leakage = 0.0719825 W
                Subthreshold Leakage with power gating = 0.0310698 W
                Gate Leakage = 0.0194538 W
                Runtime Dynamic = 3.95813 W

          Integer ALUs (Count: 6 ):
            Area = 0.672672 mm^2
            Peak Dynamic = 0.318568 W
            Subthreshold Leakage = 0.271918 W
            Subthreshold Leakage with power gating = 0.112166 W
            Gate Leakage = 0.0436568 W
            Runtime Dynamic = 0.412601 W

          Floating Point Units (FPUs) (Count: 2 ):
            Area = 9.71959 mm^2
            Peak Dynamic = 0.542753 W
            Subthreshold Leakage = 0.982251 W
            Subthreshold Leakage with power gating = 0.405179 W
            Gate Leakage = 0.157702 W
            Runtime Dynamic = 0.551219 W

          Complex ALUs (Mul/Div) (Count: 1 ):
            Area = 0.336336 mm^2
            Peak Dynamic = 0.0848425 W
            Subthreshold Leakage = 0.135959 W
            Subthreshold Leakage with power gating = 0.0560831 W
            Gate Leakage = 0.0218284 W
            Runtime Dynamic = 0.273539 W

          Results Broadcast Bus:
            Area Overhead = 0.119693 mm^2
            Peak Dynamic = 0.46022 W
            Subthreshold Leakage = 0.0792689 W
            Subthreshold Leakage with power gating = 0.0326984 W
            Gate Leakage = 0.0127267 W
            Runtime Dynamic = 1.15624 W

*****************************************************************************************
L2
      Area = 42.2475 mm^2
      Peak Dynamic = 0.210293 W
      Subthreshold Leakage = 1.0962 W
      Subthreshold Leakage with power gating = 0.498137 W
      Gate Leakage = 0.0907798 W
      Runtime Dynamic = 0.0986073 W

*****************************************************************************************
BUSES
      Area = 2.24393 mm^2
      Peak Dynamic = 0 W
      Subthreshold Leakage = 0.0436402 W
      Subthreshold Leakage with power gating = 0.0180016 W
      Gate Leakage = 0.0103493 W
      Runtime Dynamic = 0 W

      Bus: 
        Area = 2.24393 mm^2
        Peak Dynamic = 0 W
        Subthreshold Leakage = 0.0436402 W
        Subthreshold Leakage with power gating = 0.0180016 W
        Gate Leakage = 0.0103493 W
        Runtime Dynamic = 0 W

*****************************************************************************************
