McPAT (version 1.0 of Aug, 2013) is computing the target processor...
 
Warning: icache array structure cannot satisfy throughput constraint.
Warning: icache array structure cannot satisfy latency constraint.
Warning: Branch Target Buffer array structure cannot satisfy throughput constraint.
Warning: Branch Target Buffer array structure cannot satisfy latency constraint.
Warning: Global Predictor array structure cannot satisfy latency constraint.
Warning: Predictor Chooser array structure cannot satisfy latency constraint.
Warning: ReorderBuffer array structure cannot satisfy throughput constraint.
Warning: ReorderBuffer array structure cannot satisfy latency constraint.
Warning: icache array structure cannot satisfy throughput constraint.
Warning: icache array structure cannot satisfy latency constraint.
Warning: Branch Target Buffer array structure cannot satisfy throughput constraint.
Warning: Branch Target Buffer array structure cannot satisfy latency constraint.
Warning: Global Predictor array structure cannot satisfy latency constraint.
Warning: Predictor Chooser array structure cannot satisfy latency constraint.
Warning: ReorderBuffer array structure cannot satisfy throughput constraint.
Warning: ReorderBuffer array structure cannot satisfy latency constraint.
Warning: icache array structure cannot satisfy throughput constraint.
Warning: icache array structure cannot satisfy latency constraint.
Warning: Branch Target Buffer array structure cannot satisfy throughput constraint.
Warning: Branch Target Buffer array structure cannot satisfy latency constraint.
Warning: Global Predictor array structure cannot satisfy latency constraint.
Warning: Predictor Chooser array structure cannot satisfy latency constraint.
Warning: ReorderBuffer array structure cannot satisfy throughput constraint.
Warning: ReorderBuffer array structure cannot satisfy latency constraint.
Warning: icache array structure cannot satisfy throughput constraint.
Warning: icache array structure cannot satisfy latency constraint.
Warning: Branch Target Buffer array structure cannot satisfy throughput constraint.
Warning: Branch Target Buffer array structure cannot satisfy latency constraint.
Warning: Global Predictor array structure cannot satisfy latency constraint.
Warning: Predictor Chooser array structure cannot satisfy latency constraint.
Warning: ReorderBuffer array structure cannot satisfy throughput constraint.
Warning: ReorderBuffer array structure cannot satisfy latency constraint.
Warning: L2cache array structure cannot satisfy throughput constraint.
Warning: L2cache array structure cannot satisfy latency constraint.

McPAT (version 1.0 of Aug, 2013) results  (current print level is 5)
*****************************************************************************************
  Technology 90 nm
  Using Long Channel Devices When Appropriate
  Interconnect metal projection= aggressive interconnect technology projection
  Core clock Rate(MHz) 2660

*****************************************************************************************
Processor: 
  Area = 838.095 mm^2
  Peak Power = 360.164 W
  Total Leakage = 10.9098 W
  Peak Dynamic = 349.255 W
  Subthreshold Leakage = 9.05488 W
  Subthreshold Leakage with power gating = 4.44263 W
  Gate Leakage = 1.85488 W
  Runtime Dynamic = 96.5186 W

  Total Cores: 4 cores 
  Device Type= ITRS high performance device type
    Area = 447.39 mm^2
    Peak Dynamic = 348.799 W
    Subthreshold Leakage = 5.87319 W
    Subthreshold Leakage with power gating = 2.7594 W
    Gate Leakage = 1.71432 W
    Runtime Dynamic = 96.2139 W

  Total L2s: 
  Device Type= ITRS high performance device type
    Area = 379.836 mm^2
    Peak Dynamic = 0.455557 W
    Subthreshold Leakage = 3.15708 W
    Subthreshold Leakage with power gating = 1.67215 W
    Gate Leakage = 0.133698 W
    Runtime Dynamic = 0.304738 W

  Total NoCs (Network/Bus): 
  Device Type= ITRS high performance device type
    Area = 10.8685 mm^2
    Peak Dynamic = 0 W
    Subthreshold Leakage = 0.0246199 W
    Subthreshold Leakage with power gating = 0.011079 W
    Gate Leakage = 0.00686197 W
    Runtime Dynamic = 0 W

*****************************************************************************************
Core:
      Area = 111.848 mm^2
      Peak Dynamic = 90.1386 W
      Subthreshold Leakage = 1.4683 W
      Subthreshold Leakage with power gating = 0.68985 W
      Gate Leakage = 0.428579 W
      Runtime Dynamic = 27.444 W

      Instruction Fetch Unit:
        Area = 35.1262 mm^2
        Peak Dynamic = 23.7517 W
        Subthreshold Leakage = 0.256071 W
        Subthreshold Leakage with power gating = 0.129447 W
        Gate Leakage = 0.0809514 W
        Runtime Dynamic = 2.71802 W

          Instruction Cache:
            Area = 12.7837 mm^2
            Peak Dynamic = 16.475 W
            Subthreshold Leakage = 0.0845276 W
            Subthreshold Leakage with power gating = 0.0444769 W
            Gate Leakage = 0.0302009 W
            Runtime Dynamic = 1.09682 W

          Branch Target Buffer:
            Area = 13.9086 mm^2
            Peak Dynamic = 1.84942 W
            Subthreshold Leakage = 0.0647654 W
            Subthreshold Leakage with power gating = 0.0363138 W
            Gate Leakage = 0.0260099 W
            Runtime Dynamic = 0.377546 W

          Branch Predictor:
            Area = 0.694038 mm^2
            Peak Dynamic = 0.186182 W
            Subthreshold Leakage = 0.00462789 W
            Subthreshold Leakage with power gating = 0.00265931 W
            Gate Leakage = 0.000938984 W
            Runtime Dynamic = 0.0406988 W

              Global Predictor:
                Area = 0.240428 mm^2
                Peak Dynamic = 0.0626266 W
                Subthreshold Leakage = 0.00179307 W
                Subthreshold Leakage with power gating = 0.00102418 W
                Gate Leakage = 0.000376246 W
                Runtime Dynamic = 0.0143717 W

              Local Predictor:
              L1_Local Predictor:
                Area = 0.106865 mm^2
                Peak Dynamic = 0.032758 W
                Subthreshold Leakage = 0.000838092 W
                Subthreshold Leakage with power gating = 0.000489704 W
                Gate Leakage = 0.000143285 W
                Runtime Dynamic = 0.00771243 W

              L2_Local Predictor:
                Area = 0.0622213 mm^2
                Peak Dynamic = 0.0120857 W
                Subthreshold Leakage = 0.000398338 W
                Subthreshold Leakage with power gating = 0.000236419 W
                Gate Leakage = 7.80127e-05 W
                Runtime Dynamic = 0.00298776 W

              Chooser:
                Area = 0.240428 mm^2
                Peak Dynamic = 0.0626266 W
                Subthreshold Leakage = 0.00179307 W
                Subthreshold Leakage with power gating = 0.00102418 W
                Gate Leakage = 0.000376246 W
                Runtime Dynamic = 0.0143717 W

              RAS:
                Area = 0.0440946 mm^2
                Peak Dynamic = 0.0281704 W
                Subthreshold Leakage = 0.000203652 W
                Subthreshold Leakage with power gating = 0.000121237 W
                Gate Leakage = 4.32081e-05 W
                Runtime Dynamic = 0.00424295 W

          Instruction Buffer:
            Area = 0.101747 mm^2
            Peak Dynamic = 1.47822 W
            Subthreshold Leakage = 0.000332238 W
            Subthreshold Leakage with power gating = 0.000178818 W
            Gate Leakage = 6.33684e-05 W
            Runtime Dynamic = 0.294588 W

          Instruction Decoder:
            Area = 7.45796 mm^2
            Peak Dynamic = 3.03875 W
            Subthreshold Leakage = 0.0974743 W
            Subthreshold Leakage with power gating = 0.0438634 W
            Gate Leakage = 0.0206919 W
            Runtime Dynamic = 0.908369 W

      Renaming Unit:
        Area = 1.48092 mm^2
        Peak Dynamic = 11.2522 W
        Subthreshold Leakage = 0.0155062 W
        Subthreshold Leakage with power gating = 0.00832237 W
        Gate Leakage = 0.00803106 W
        Runtime Dynamic = 1.1539 W

          Int Front End RAT:
            Area = 0.460284 mm^2
            Peak Dynamic = 2.07947 W
            Subthreshold Leakage = 0.00134351 W
            Subthreshold Leakage with power gating = 0.000765799 W
            Gate Leakage = 0.000356514 W
            Runtime Dynamic = 0.576396 W

          FP Front End RAT:
            Area = 0.673946 mm^2
            Peak Dynamic = 8.35677 W
            Subthreshold Leakage = 0.00967319 W
            Subthreshold Leakage with power gating = 0.00551372 W
            Gate Leakage = 0.00458958 W
            Runtime Dynamic = 0.516908 W

          Free List:
            Area = 0.166478 mm^2
            Peak Dynamic = 0.0918468 W
            Subthreshold Leakage = 0.000146453 W
            Subthreshold Leakage with power gating = 8.84736e-05 W
            Gate Leakage = 3.86939e-05 W
            Runtime Dynamic = 0.0605924 W

      Load Store Unit:
        Area = 31.0201 mm^2
        Peak Dynamic = 12.6142 W
        Subthreshold Leakage = 0.134463 W
        Subthreshold Leakage with power gating = 0.0695374 W
        Gate Leakage = 0.0350882 W
        Runtime Dynamic = 5.55416 W

          Data Cache:
            Area = 23.8879 mm^2
            Peak Dynamic = 11.4043 W
            Subthreshold Leakage = 0.12041 W
            Subthreshold Leakage with power gating = 0.0620482 W
            Gate Leakage = 0.0283949 W
            Runtime Dynamic = 4.00859 W

          LoadQ:
            Area = 0.336377 mm^2
            Peak Dynamic = 0.258204 W
            Subthreshold Leakage = 0.00207484 W
            Subthreshold Leakage with power gating = 0.00118266 W
            Gate Leakage = 0.000557836 W
            Runtime Dynamic = 0.258204 W

          StoreQ:
            Area = 1.29385 mm^2
            Peak Dynamic = 0.643684 W
            Subthreshold Leakage = 0.0076355 W
            Subthreshold Leakage with power gating = 0.00435224 W
            Gate Leakage = 0.00308913 W
            Runtime Dynamic = 1.28737 W

      Memory Management Unit:
        Area = 1.74319 mm^2
        Peak Dynamic = 1.71608 W
        Subthreshold Leakage = 0.0168886 W
        Subthreshold Leakage with power gating = 0.00910531 W
        Gate Leakage = 0.00754991 W
        Runtime Dynamic = 0.375296 W

          Itlb:
            Area = 1.21019 mm^2
            Peak Dynamic = 0.988875 W
            Subthreshold Leakage = 0.00914438 W
            Subthreshold Leakage with power gating = 0.0052123 W
            Gate Leakage = 0.00368346 W
            Runtime Dynamic = 0.163813 W

          Dtlb:
            Area = 0.352783 mm^2
            Peak Dynamic = 0.211105 W
            Subthreshold Leakage = 0.0034011 W
            Subthreshold Leakage with power gating = 0.00193863 W
            Gate Leakage = 0.000820167 W
            Runtime Dynamic = 0.211483 W

      Execution Unit:
        Area = 33.5042 mm^2
        Peak Dynamic = 40.8043 W
        Subthreshold Leakage = 0.632093 W
        Subthreshold Leakage with power gating = 0.287464 W
        Gate Leakage = 0.181772 W
        Runtime Dynamic = 17.6426 W

          Register Files:
            Area = 2.33649 mm^2
            Peak Dynamic = 0.487888 W
            Subthreshold Leakage = 0.00223782 W
            Subthreshold Leakage with power gating = 0.00107613 W
            Gate Leakage = 0.000581954 W
            Runtime Dynamic = 0.35082 W

              Integer RF:
                Area = 1.45379 mm^2
                Peak Dynamic = 0.343917 W
                Subthreshold Leakage = 0.0013575 W
                Subthreshold Leakage with power gating = 0.000634956 W
                Gate Leakage = 0.000364703 W
                Runtime Dynamic = 0.309405 W

              Floating Point RF:
                Area = 0.882698 mm^2
                Peak Dynamic = 0.143972 W
                Subthreshold Leakage = 0.000880313 W
                Subthreshold Leakage with power gating = 0.000441179 W
                Gate Leakage = 0.000217251 W
                Runtime Dynamic = 0.0414152 W

          Instruction Scheduler:
            Area = 10.7146 mm^2
            Peak Dynamic = 37.7065 W
            Subthreshold Leakage = 0.0418257 W
            Subthreshold Leakage with power gating = 0.0217749 W
            Gate Leakage = 0.0154611 W
            Runtime Dynamic = 13.0517 W

              Instruction Window:
                Area = 4.06074 mm^2
                Peak Dynamic = 5.17351 W
                Subthreshold Leakage = 0.0177249 W
                Subthreshold Leakage with power gating = 0.0100936 W
                Gate Leakage = 0.00495309 W
                Runtime Dynamic = 2.02319 W

              FP Instruction Window:
                Area = 1.31653 mm^2
                Peak Dynamic = 3.03616 W
                Subthreshold Leakage = 0.00376639 W
                Subthreshold Leakage with power gating = 0.00213725 W
                Gate Leakage = 0.00107917 W
                Runtime Dynamic = 1.17898 W

              ROB:
                Area = 5.33732 mm^2
                Peak Dynamic = 29.4968 W
                Subthreshold Leakage = 0.0203344 W
                Subthreshold Leakage with power gating = 0.00954406 W
                Gate Leakage = 0.00942888 W
                Runtime Dynamic = 9.84952 W

          Integer ALUs (Count: 6 ):
            Area = 0.96096 mm^2
            Peak Dynamic = 0.824393 W
            Subthreshold Leakage = 0.0885206 W
            Subthreshold Leakage with power gating = 0.0398343 W
            Gate Leakage = 0.0246721 W
            Runtime Dynamic = 0.860483 W

          Floating Point Units (FPUs) (Count: 2 ):
            Area = 18.634 mm^2
            Peak Dynamic = 0.596224 W
            Subthreshold Leakage = 0.429126 W
            Subthreshold Leakage with power gating = 0.193107 W
            Gate Leakage = 0.119605 W
            Runtime Dynamic = 0.587146 W

          Complex ALUs (Mul/Div) (Count: 1 ):
            Area = 0.48048 mm^2
            Peak Dynamic = 0.0900239 W
            Subthreshold Leakage = 0.0442603 W
            Subthreshold Leakage with power gating = 0.0199171 W
            Gate Leakage = 0.0123361 W
            Runtime Dynamic = 0.2846 W

          Results Broadcast Bus:
            Area Overhead = 0.197443 mm^2
            Peak Dynamic = 0.96996 W
            Subthreshold Leakage = 0.0217785 W
            Subthreshold Leakage with power gating = 0.00980034 W
            Gate Leakage = 0.00607003 W
            Runtime Dynamic = 2.50785 W

*****************************************************************************************
Core:
      Area = 111.848 mm^2
      Peak Dynamic = 89.1223 W
      Subthreshold Leakage = 1.4683 W
      Subthreshold Leakage with power gating = 0.68985 W
      Gate Leakage = 0.428579 W
      Runtime Dynamic = 25.4716 W

      Instruction Fetch Unit:
        Area = 35.1262 mm^2
        Peak Dynamic = 23.7517 W
        Subthreshold Leakage = 0.256071 W
        Subthreshold Leakage with power gating = 0.129447 W
        Gate Leakage = 0.0809514 W
        Runtime Dynamic = 2.38068 W

          Instruction Cache:
            Area = 12.7837 mm^2
            Peak Dynamic = 16.475 W
            Subthreshold Leakage = 0.0845276 W
            Subthreshold Leakage with power gating = 0.0444769 W
            Gate Leakage = 0.0302009 W
            Runtime Dynamic = 0.920531 W

          Branch Target Buffer:
            Area = 13.9086 mm^2
            Peak Dynamic = 1.84942 W
            Subthreshold Leakage = 0.0647654 W
            Subthreshold Leakage with power gating = 0.0363138 W
            Gate Leakage = 0.0260099 W
            Runtime Dynamic = 0.319242 W

          Branch Predictor:
            Area = 0.694038 mm^2
            Peak Dynamic = 0.186182 W
            Subthreshold Leakage = 0.00462789 W
            Subthreshold Leakage with power gating = 0.00265931 W
            Gate Leakage = 0.000938984 W
            Runtime Dynamic = 0.034521 W

              Global Predictor:
                Area = 0.240428 mm^2
                Peak Dynamic = 0.0626266 W
                Subthreshold Leakage = 0.00179307 W
                Subthreshold Leakage with power gating = 0.00102418 W
                Gate Leakage = 0.000376246 W
                Runtime Dynamic = 0.0120739 W

              Local Predictor:
              L1_Local Predictor:
                Area = 0.106865 mm^2
                Peak Dynamic = 0.032758 W
                Subthreshold Leakage = 0.000838092 W
                Subthreshold Leakage with power gating = 0.000489704 W
                Gate Leakage = 0.000143285 W
                Runtime Dynamic = 0.00647079 W

              L2_Local Predictor:
                Area = 0.0622213 mm^2
                Peak Dynamic = 0.0120857 W
                Subthreshold Leakage = 0.000398338 W
                Subthreshold Leakage with power gating = 0.000236419 W
                Gate Leakage = 7.80127e-05 W
                Runtime Dynamic = 0.00250066 W

              Chooser:
                Area = 0.240428 mm^2
                Peak Dynamic = 0.0626266 W
                Subthreshold Leakage = 0.00179307 W
                Subthreshold Leakage with power gating = 0.00102418 W
                Gate Leakage = 0.000376246 W
                Runtime Dynamic = 0.0120739 W

              RAS:
                Area = 0.0440946 mm^2
                Peak Dynamic = 0.0281704 W
                Subthreshold Leakage = 0.000203652 W
                Subthreshold Leakage with power gating = 0.000121237 W
                Gate Leakage = 4.32081e-05 W
                Runtime Dynamic = 0.00390233 W

          Instruction Buffer:
            Area = 0.101747 mm^2
            Peak Dynamic = 1.47822 W
            Subthreshold Leakage = 0.000332238 W
            Subthreshold Leakage with power gating = 0.000178818 W
            Gate Leakage = 6.33684e-05 W
            Runtime Dynamic = 0.270939 W

          Instruction Decoder:
            Area = 7.45796 mm^2
            Peak Dynamic = 3.03875 W
            Subthreshold Leakage = 0.0974743 W
            Subthreshold Leakage with power gating = 0.0438634 W
            Gate Leakage = 0.0206919 W
            Runtime Dynamic = 0.835445 W

      Renaming Unit:
        Area = 1.48092 mm^2
        Peak Dynamic = 11.2522 W
        Subthreshold Leakage = 0.0155062 W
        Subthreshold Leakage with power gating = 0.00832237 W
        Gate Leakage = 0.00803106 W
        Runtime Dynamic = 1.16326 W

          Int Front End RAT:
            Area = 0.460284 mm^2
            Peak Dynamic = 2.07947 W
            Subthreshold Leakage = 0.00134351 W
            Subthreshold Leakage with power gating = 0.000765799 W
            Gate Leakage = 0.000356514 W
            Runtime Dynamic = 0.528839 W

          FP Front End RAT:
            Area = 0.673946 mm^2
            Peak Dynamic = 8.35677 W
            Subthreshold Leakage = 0.00967319 W
            Subthreshold Leakage with power gating = 0.00551372 W
            Gate Leakage = 0.00458958 W
            Runtime Dynamic = 0.577568 W

          Free List:
            Area = 0.166478 mm^2
            Peak Dynamic = 0.0918468 W
            Subthreshold Leakage = 0.000146453 W
            Subthreshold Leakage with power gating = 8.84736e-05 W
            Gate Leakage = 3.86939e-05 W
            Runtime Dynamic = 0.0568509 W

      Load Store Unit:
        Area = 31.0201 mm^2
        Peak Dynamic = 11.7014 W
        Subthreshold Leakage = 0.134463 W
        Subthreshold Leakage with power gating = 0.0695374 W
        Gate Leakage = 0.0350882 W
        Runtime Dynamic = 5.02732 W

          Data Cache:
            Area = 23.8879 mm^2
            Peak Dynamic = 10.6077 W
            Subthreshold Leakage = 0.12041 W
            Subthreshold Leakage with power gating = 0.0620482 W
            Gate Leakage = 0.0283949 W
            Runtime Dynamic = 3.63033 W

          LoadQ:
            Area = 0.336377 mm^2
            Peak Dynamic = 0.233382 W
            Subthreshold Leakage = 0.00207484 W
            Subthreshold Leakage with power gating = 0.00118266 W
            Gate Leakage = 0.000557836 W
            Runtime Dynamic = 0.233382 W

          StoreQ:
            Area = 1.29385 mm^2
            Peak Dynamic = 0.581805 W
            Subthreshold Leakage = 0.0076355 W
            Subthreshold Leakage with power gating = 0.00435224 W
            Gate Leakage = 0.00308913 W
            Runtime Dynamic = 1.16361 W

      Memory Management Unit:
        Area = 1.74319 mm^2
        Peak Dynamic = 1.68098 W
        Subthreshold Leakage = 0.0168886 W
        Subthreshold Leakage with power gating = 0.00910531 W
        Gate Leakage = 0.00754991 W
        Runtime Dynamic = 0.33229 W

          Itlb:
            Area = 1.21019 mm^2
            Peak Dynamic = 0.988875 W
            Subthreshold Leakage = 0.00914438 W
            Subthreshold Leakage with power gating = 0.0052123 W
            Gate Leakage = 0.00368346 W
            Runtime Dynamic = 0.141004 W

          Dtlb:
            Area = 0.352783 mm^2
            Peak Dynamic = 0.190811 W
            Subthreshold Leakage = 0.0034011 W
            Subthreshold Leakage with power gating = 0.00193863 W
            Gate Leakage = 0.000820167 W
            Runtime Dynamic = 0.191286 W

      Execution Unit:
        Area = 33.5042 mm^2
        Peak Dynamic = 40.736 W
        Subthreshold Leakage = 0.632093 W
        Subthreshold Leakage with power gating = 0.287464 W
        Gate Leakage = 0.181772 W
        Runtime Dynamic = 16.568 W

          Register Files:
            Area = 2.33649 mm^2
            Peak Dynamic = 0.485442 W
            Subthreshold Leakage = 0.00223782 W
            Subthreshold Leakage with power gating = 0.00107613 W
            Gate Leakage = 0.000581954 W
            Runtime Dynamic = 0.322657 W

              Integer RF:
                Area = 1.45379 mm^2
                Peak Dynamic = 0.324574 W
                Subthreshold Leakage = 0.0013575 W
                Subthreshold Leakage with power gating = 0.000634956 W
                Gate Leakage = 0.000364703 W
                Runtime Dynamic = 0.284566 W

              Floating Point RF:
                Area = 0.882698 mm^2
                Peak Dynamic = 0.160868 W
                Subthreshold Leakage = 0.000880313 W
                Subthreshold Leakage with power gating = 0.000441179 W
                Gate Leakage = 0.000217251 W
                Runtime Dynamic = 0.0380905 W

          Instruction Scheduler:
            Area = 10.7146 mm^2
            Peak Dynamic = 37.7065 W
            Subthreshold Leakage = 0.0418257 W
            Subthreshold Leakage with power gating = 0.0217749 W
            Gate Leakage = 0.0154611 W
            Runtime Dynamic = 12.1213 W

              Instruction Window:
                Area = 4.06074 mm^2
                Peak Dynamic = 5.17351 W
                Subthreshold Leakage = 0.0177249 W
                Subthreshold Leakage with power gating = 0.0100936 W
                Gate Leakage = 0.00495309 W
                Runtime Dynamic = 1.86077 W

              FP Instruction Window:
                Area = 1.31653 mm^2
                Peak Dynamic = 3.03616 W
                Subthreshold Leakage = 0.00376639 W
                Subthreshold Leakage with power gating = 0.00213725 W
                Gate Leakage = 0.00107917 W
                Runtime Dynamic = 1.08433 W

              ROB:
                Area = 5.33732 mm^2
                Peak Dynamic = 29.4968 W
                Subthreshold Leakage = 0.0203344 W
                Subthreshold Leakage with power gating = 0.00954406 W
                Gate Leakage = 0.00942888 W
                Runtime Dynamic = 9.17624 W

          Integer ALUs (Count: 6 ):
            Area = 0.96096 mm^2
            Peak Dynamic = 0.73941 W
            Subthreshold Leakage = 0.0885206 W
            Subthreshold Leakage with power gating = 0.0398343 W
            Gate Leakage = 0.0246721 W
            Runtime Dynamic = 0.804621 W

          Floating Point Units (FPUs) (Count: 2 ):
            Area = 18.634 mm^2
            Peak Dynamic = 0.666193 W
            Subthreshold Leakage = 0.429126 W
            Subthreshold Leakage with power gating = 0.193107 W
            Gate Leakage = 0.119605 W
            Runtime Dynamic = 0.619894 W

          Complex ALUs (Mul/Div) (Count: 1 ):
            Area = 0.48048 mm^2
            Peak Dynamic = 0.100696 W
            Subthreshold Leakage = 0.0442603 W
            Subthreshold Leakage with power gating = 0.0199171 W
            Gate Leakage = 0.0123361 W
            Runtime Dynamic = 0.293989 W

          Results Broadcast Bus:
            Area Overhead = 0.197443 mm^2
            Peak Dynamic = 0.921768 W
            Subthreshold Leakage = 0.0217785 W
            Subthreshold Leakage with power gating = 0.00980034 W
            Gate Leakage = 0.00607003 W
            Runtime Dynamic = 2.40553 W

*****************************************************************************************
Core:
      Area = 111.848 mm^2
      Peak Dynamic = 90.939 W
      Subthreshold Leakage = 1.4683 W
      Subthreshold Leakage with power gating = 0.68985 W
      Gate Leakage = 0.428579 W
      Runtime Dynamic = 27.2748 W

      Instruction Fetch Unit:
        Area = 35.1262 mm^2
        Peak Dynamic = 23.7517 W
        Subthreshold Leakage = 0.256071 W
        Subthreshold Leakage with power gating = 0.129447 W
        Gate Leakage = 0.0809514 W
        Runtime Dynamic = 2.4239 W

          Instruction Cache:
            Area = 12.7837 mm^2
            Peak Dynamic = 16.475 W
            Subthreshold Leakage = 0.0845276 W
            Subthreshold Leakage with power gating = 0.0444769 W
            Gate Leakage = 0.0302009 W
            Runtime Dynamic = 0.907829 W

          Branch Target Buffer:
            Area = 13.9086 mm^2
            Peak Dynamic = 1.84942 W
            Subthreshold Leakage = 0.0647654 W
            Subthreshold Leakage with power gating = 0.0363138 W
            Gate Leakage = 0.0260099 W
            Runtime Dynamic = 0.369357 W

          Branch Predictor:
            Area = 0.694038 mm^2
            Peak Dynamic = 0.186182 W
            Subthreshold Leakage = 0.00462789 W
            Subthreshold Leakage with power gating = 0.00265931 W
            Gate Leakage = 0.000938984 W
            Runtime Dynamic = 0.0394973 W

              Global Predictor:
                Area = 0.240428 mm^2
                Peak Dynamic = 0.0626266 W
                Subthreshold Leakage = 0.00179307 W
                Subthreshold Leakage with power gating = 0.00102418 W
                Gate Leakage = 0.000376246 W
                Runtime Dynamic = 0.0140324 W

              Local Predictor:
              L1_Local Predictor:
                Area = 0.106865 mm^2
                Peak Dynamic = 0.032758 W
                Subthreshold Leakage = 0.000838092 W
                Subthreshold Leakage with power gating = 0.000489704 W
                Gate Leakage = 0.000143285 W
                Runtime Dynamic = 0.00752731 W

              L2_Local Predictor:
                Area = 0.0622213 mm^2
                Peak Dynamic = 0.0120857 W
                Subthreshold Leakage = 0.000398338 W
                Subthreshold Leakage with power gating = 0.000236419 W
                Gate Leakage = 7.80127e-05 W
                Runtime Dynamic = 0.0029139 W

              Chooser:
                Area = 0.240428 mm^2
                Peak Dynamic = 0.0626266 W
                Subthreshold Leakage = 0.00179307 W
                Subthreshold Leakage with power gating = 0.00102418 W
                Gate Leakage = 0.000376246 W
                Runtime Dynamic = 0.0140324 W

              RAS:
                Area = 0.0440946 mm^2
                Peak Dynamic = 0.0281704 W
                Subthreshold Leakage = 0.000203652 W
                Subthreshold Leakage with power gating = 0.000121237 W
                Gate Leakage = 4.32081e-05 W
                Runtime Dynamic = 0.00390527 W

          Instruction Buffer:
            Area = 0.101747 mm^2
            Peak Dynamic = 1.47822 W
            Subthreshold Leakage = 0.000332238 W
            Subthreshold Leakage with power gating = 0.000178818 W
            Gate Leakage = 6.33684e-05 W
            Runtime Dynamic = 0.271143 W

          Instruction Decoder:
            Area = 7.45796 mm^2
            Peak Dynamic = 3.03875 W
            Subthreshold Leakage = 0.0974743 W
            Subthreshold Leakage with power gating = 0.0438634 W
            Gate Leakage = 0.0206919 W
            Runtime Dynamic = 0.836075 W

      Renaming Unit:
        Area = 1.48092 mm^2
        Peak Dynamic = 11.2522 W
        Subthreshold Leakage = 0.0155062 W
        Subthreshold Leakage with power gating = 0.00832237 W
        Gate Leakage = 0.00803106 W
        Runtime Dynamic = 1.13983 W

          Int Front End RAT:
            Area = 0.460284 mm^2
            Peak Dynamic = 2.07947 W
            Subthreshold Leakage = 0.00134351 W
            Subthreshold Leakage with power gating = 0.000765799 W
            Gate Leakage = 0.000356514 W
            Runtime Dynamic = 0.526213 W

          FP Front End RAT:
            Area = 0.673946 mm^2
            Peak Dynamic = 8.35677 W
            Subthreshold Leakage = 0.00967319 W
            Subthreshold Leakage with power gating = 0.00551372 W
            Gate Leakage = 0.00458958 W
            Runtime Dynamic = 0.556951 W

          Free List:
            Area = 0.166478 mm^2
            Peak Dynamic = 0.0918468 W
            Subthreshold Leakage = 0.000146453 W
            Subthreshold Leakage with power gating = 8.84736e-05 W
            Gate Leakage = 3.86939e-05 W
            Runtime Dynamic = 0.0566624 W

      Load Store Unit:
        Area = 31.0201 mm^2
        Peak Dynamic = 13.4851 W
        Subthreshold Leakage = 0.134463 W
        Subthreshold Leakage with power gating = 0.0695374 W
        Gate Leakage = 0.0350882 W
        Runtime Dynamic = 6.06415 W

          Data Cache:
            Area = 23.8879 mm^2
            Peak Dynamic = 12.1642 W
            Subthreshold Leakage = 0.12041 W
            Subthreshold Leakage with power gating = 0.0620482 W
            Gate Leakage = 0.0283949 W
            Runtime Dynamic = 4.37684 W

          LoadQ:
            Area = 0.336377 mm^2
            Peak Dynamic = 0.281882 W
            Subthreshold Leakage = 0.00207484 W
            Subthreshold Leakage with power gating = 0.00118266 W
            Gate Leakage = 0.000557836 W
            Runtime Dynamic = 0.281882 W

          StoreQ:
            Area = 1.29385 mm^2
            Peak Dynamic = 0.702712 W
            Subthreshold Leakage = 0.0076355 W
            Subthreshold Leakage with power gating = 0.00435224 W
            Gate Leakage = 0.00308913 W
            Runtime Dynamic = 1.40542 W

      Memory Management Unit:
        Area = 1.74319 mm^2
        Peak Dynamic = 1.74957 W
        Subthreshold Leakage = 0.0168886 W
        Subthreshold Leakage with power gating = 0.00910531 W
        Gate Leakage = 0.00754991 W
        Runtime Dynamic = 0.370044 W

          Itlb:
            Area = 1.21019 mm^2
            Peak Dynamic = 0.988875 W
            Subthreshold Leakage = 0.00914438 W
            Subthreshold Leakage with power gating = 0.0052123 W
            Gate Leakage = 0.00368346 W
            Runtime Dynamic = 0.139082 W

          Dtlb:
            Area = 0.352783 mm^2
            Peak Dynamic = 0.230464 W
            Subthreshold Leakage = 0.0034011 W
            Subthreshold Leakage with power gating = 0.00193863 W
            Gate Leakage = 0.000820167 W
            Runtime Dynamic = 0.230963 W

      Execution Unit:
        Area = 33.5042 mm^2
        Peak Dynamic = 40.7005 W
        Subthreshold Leakage = 0.632093 W
        Subthreshold Leakage with power gating = 0.287464 W
        Gate Leakage = 0.181772 W
        Runtime Dynamic = 17.2769 W

          Register Files:
            Area = 2.33649 mm^2
            Peak Dynamic = 0.478114 W
            Subthreshold Leakage = 0.00223782 W
            Subthreshold Leakage with power gating = 0.00107613 W
            Gate Leakage = 0.000581954 W
            Runtime Dynamic = 0.3229 W

              Integer RF:
                Area = 1.45379 mm^2
                Peak Dynamic = 0.32299 W
                Subthreshold Leakage = 0.0013575 W
                Subthreshold Leakage with power gating = 0.000634956 W
                Gate Leakage = 0.000364703 W
                Runtime Dynamic = 0.284781 W

              Floating Point RF:
                Area = 0.882698 mm^2
                Peak Dynamic = 0.155124 W
                Subthreshold Leakage = 0.000880313 W
                Subthreshold Leakage with power gating = 0.000441179 W
                Gate Leakage = 0.000217251 W
                Runtime Dynamic = 0.0381192 W

          Instruction Scheduler:
            Area = 10.7146 mm^2
            Peak Dynamic = 37.7065 W
            Subthreshold Leakage = 0.0418257 W
            Subthreshold Leakage with power gating = 0.0217749 W
            Gate Leakage = 0.0154611 W
            Runtime Dynamic = 12.7031 W

              Instruction Window:
                Area = 4.06074 mm^2
                Peak Dynamic = 5.17351 W
                Subthreshold Leakage = 0.0177249 W
                Subthreshold Leakage with power gating = 0.0100936 W
                Gate Leakage = 0.00495309 W
                Runtime Dynamic = 1.86217 W

              FP Instruction Window:
                Area = 1.31653 mm^2
                Peak Dynamic = 3.03616 W
                Subthreshold Leakage = 0.00376639 W
                Subthreshold Leakage with power gating = 0.00213725 W
                Gate Leakage = 0.00107917 W
                Runtime Dynamic = 1.08515 W

              ROB:
                Area = 5.33732 mm^2
                Peak Dynamic = 29.4968 W
                Subthreshold Leakage = 0.0203344 W
                Subthreshold Leakage with power gating = 0.00954406 W
                Gate Leakage = 0.00942888 W
                Runtime Dynamic = 9.75579 W

          Integer ALUs (Count: 6 ):
            Area = 0.96096 mm^2
            Peak Dynamic = 0.743844 W
            Subthreshold Leakage = 0.0885206 W
            Subthreshold Leakage with power gating = 0.0398343 W
            Gate Leakage = 0.0246721 W
            Runtime Dynamic = 0.84705 W

          Floating Point Units (FPUs) (Count: 2 ):
            Area = 18.634 mm^2
            Peak Dynamic = 0.642409 W
            Subthreshold Leakage = 0.429126 W
            Subthreshold Leakage with power gating = 0.193107 W
            Gate Leakage = 0.119605 W
            Runtime Dynamic = 0.608763 W

          Complex ALUs (Mul/Div) (Count: 1 ):
            Area = 0.48048 mm^2
            Peak Dynamic = 0.0969274 W
            Subthreshold Leakage = 0.0442603 W
            Subthreshold Leakage with power gating = 0.0199171 W
            Gate Leakage = 0.0123361 W
            Runtime Dynamic = 0.290674 W

          Results Broadcast Bus:
            Area Overhead = 0.197443 mm^2
            Peak Dynamic = 0.915944 W
            Subthreshold Leakage = 0.0217785 W
            Subthreshold Leakage with power gating = 0.00980034 W
            Gate Leakage = 0.00607003 W
            Runtime Dynamic = 2.50436 W

*****************************************************************************************
Core:
      Area = 111.848 mm^2
      Peak Dynamic = 78.599 W
      Subthreshold Leakage = 1.4683 W
      Subthreshold Leakage with power gating = 0.68985 W
      Gate Leakage = 0.428579 W
      Runtime Dynamic = 16.0236 W

      Instruction Fetch Unit:
        Area = 35.1262 mm^2
        Peak Dynamic = 18.3638 W
        Subthreshold Leakage = 0.256071 W
        Subthreshold Leakage with power gating = 0.129447 W
        Gate Leakage = 0.0809514 W
        Runtime Dynamic = 1.37535 W

          Instruction Cache:
            Area = 12.7837 mm^2
            Peak Dynamic = 11.3139 W
            Subthreshold Leakage = 0.0845276 W
            Subthreshold Leakage with power gating = 0.0444769 W
            Gate Leakage = 0.0302009 W
            Runtime Dynamic = 0.510348 W

          Branch Target Buffer:
            Area = 13.9086 mm^2
            Peak Dynamic = 1.84942 W
            Subthreshold Leakage = 0.0647654 W
            Subthreshold Leakage with power gating = 0.0363138 W
            Gate Leakage = 0.0260099 W
            Runtime Dynamic = 0.156147 W

          Branch Predictor:
            Area = 0.694038 mm^2
            Peak Dynamic = 0.186182 W
            Subthreshold Leakage = 0.00462789 W
            Subthreshold Leakage with power gating = 0.00265931 W
            Gate Leakage = 0.000938984 W
            Runtime Dynamic = 0.0179646 W

              Global Predictor:
                Area = 0.240428 mm^2
                Peak Dynamic = 0.0626266 W
                Subthreshold Leakage = 0.00179307 W
                Subthreshold Leakage with power gating = 0.00102418 W
                Gate Leakage = 0.000376246 W
                Runtime Dynamic = 0.00611406 W

              Local Predictor:
              L1_Local Predictor:
                Area = 0.106865 mm^2
                Peak Dynamic = 0.032758 W
                Subthreshold Leakage = 0.000838092 W
                Subthreshold Leakage with power gating = 0.000489704 W
                Gate Leakage = 0.000143285 W
                Runtime Dynamic = 0.00329965 W

              L2_Local Predictor:
                Area = 0.0622213 mm^2
                Peak Dynamic = 0.0120857 W
                Subthreshold Leakage = 0.000398338 W
                Subthreshold Leakage with power gating = 0.000236419 W
                Gate Leakage = 7.80127e-05 W
                Runtime Dynamic = 0.0012915 W

              Chooser:
                Area = 0.240428 mm^2
                Peak Dynamic = 0.0626266 W
                Subthreshold Leakage = 0.00179307 W
                Subthreshold Leakage with power gating = 0.00102418 W
                Gate Leakage = 0.000376246 W
                Runtime Dynamic = 0.00611406 W

              RAS:
                Area = 0.0440946 mm^2
                Peak Dynamic = 0.0281704 W
                Subthreshold Leakage = 0.000203652 W
                Subthreshold Leakage with power gating = 0.000121237 W
                Gate Leakage = 4.32081e-05 W
                Runtime Dynamic = 0.00243685 W

          Instruction Buffer:
            Area = 0.101747 mm^2
            Peak Dynamic = 1.47822 W
            Subthreshold Leakage = 0.000332238 W
            Subthreshold Leakage with power gating = 0.000178818 W
            Gate Leakage = 6.33684e-05 W
            Runtime Dynamic = 0.169191 W

          Instruction Decoder:
            Area = 7.45796 mm^2
            Peak Dynamic = 3.03875 W
            Subthreshold Leakage = 0.0974743 W
            Subthreshold Leakage with power gating = 0.0438634 W
            Gate Leakage = 0.0206919 W
            Runtime Dynamic = 0.521702 W

      Renaming Unit:
        Area = 1.48092 mm^2
        Peak Dynamic = 11.2522 W
        Subthreshold Leakage = 0.0155062 W
        Subthreshold Leakage with power gating = 0.00832237 W
        Gate Leakage = 0.00803106 W
        Runtime Dynamic = 0.945115 W

          Int Front End RAT:
            Area = 0.460284 mm^2
            Peak Dynamic = 2.07947 W
            Subthreshold Leakage = 0.00134351 W
            Subthreshold Leakage with power gating = 0.000765799 W
            Gate Leakage = 0.000356514 W
            Runtime Dynamic = 0.326188 W

          FP Front End RAT:
            Area = 0.673946 mm^2
            Peak Dynamic = 8.35677 W
            Subthreshold Leakage = 0.00967319 W
            Subthreshold Leakage with power gating = 0.00551372 W
            Gate Leakage = 0.00458958 W
            Runtime Dynamic = 0.581004 W

          Free List:
            Area = 0.166478 mm^2
            Peak Dynamic = 0.0918468 W
            Subthreshold Leakage = 0.000146453 W
            Subthreshold Leakage with power gating = 8.84736e-05 W
            Gate Leakage = 3.86939e-05 W
            Runtime Dynamic = 0.0379228 W

      Load Store Unit:
        Area = 31.0201 mm^2
        Peak Dynamic = 7.77553 W
        Subthreshold Leakage = 0.134463 W
        Subthreshold Leakage with power gating = 0.0695374 W
        Gate Leakage = 0.0350882 W
        Runtime Dynamic = 2.72529 W

          Data Cache:
            Area = 23.8879 mm^2
            Peak Dynamic = 7.18212 W
            Subthreshold Leakage = 0.12041 W
            Subthreshold Leakage with power gating = 0.0620482 W
            Gate Leakage = 0.0283949 W
            Runtime Dynamic = 1.96727 W

          LoadQ:
            Area = 0.336377 mm^2
            Peak Dynamic = 0.126636 W
            Subthreshold Leakage = 0.00207484 W
            Subthreshold Leakage with power gating = 0.00118266 W
            Gate Leakage = 0.000557836 W
            Runtime Dynamic = 0.126636 W

          StoreQ:
            Area = 1.29385 mm^2
            Peak Dynamic = 0.315694 W
            Subthreshold Leakage = 0.0076355 W
            Subthreshold Leakage with power gating = 0.00435224 W
            Gate Leakage = 0.00308913 W
            Runtime Dynamic = 0.631387 W

      Memory Management Unit:
        Area = 1.74319 mm^2
        Peak Dynamic = 1.22025 W
        Subthreshold Leakage = 0.0168886 W
        Subthreshold Leakage with power gating = 0.00910531 W
        Gate Leakage = 0.00754991 W
        Runtime Dynamic = 0.181615 W

          Itlb:
            Area = 1.21019 mm^2
            Peak Dynamic = 0.679093 W
            Subthreshold Leakage = 0.00914438 W
            Subthreshold Leakage with power gating = 0.0052123 W
            Gate Leakage = 0.00368346 W
            Runtime Dynamic = 0.0776858 W

          Dtlb:
            Area = 0.352783 mm^2
            Peak Dynamic = 0.103536 W
            Subthreshold Leakage = 0.0034011 W
            Subthreshold Leakage with power gating = 0.00193863 W
            Gate Leakage = 0.000820167 W
            Runtime Dynamic = 0.103929 W

      Execution Unit:
        Area = 33.5042 mm^2
        Peak Dynamic = 39.9872 W
        Subthreshold Leakage = 0.632093 W
        Subthreshold Leakage with power gating = 0.287464 W
        Gate Leakage = 0.181772 W
        Runtime Dynamic = 10.7962 W

          Register Files:
            Area = 2.33649 mm^2
            Peak Dynamic = 0.382311 W
            Subthreshold Leakage = 0.00223782 W
            Subthreshold Leakage with power gating = 0.00107613 W
            Gate Leakage = 0.000581954 W
            Runtime Dynamic = 0.201486 W

              Integer RF:
                Area = 1.45379 mm^2
                Peak Dynamic = 0.220487 W
                Subthreshold Leakage = 0.0013575 W
                Subthreshold Leakage with power gating = 0.000634956 W
                Gate Leakage = 0.000364703 W
                Runtime Dynamic = 0.1777 W

              Floating Point RF:
                Area = 0.882698 mm^2
                Peak Dynamic = 0.161824 W
                Subthreshold Leakage = 0.000880313 W
                Subthreshold Leakage with power gating = 0.000441179 W
                Gate Leakage = 0.000217251 W
                Runtime Dynamic = 0.023786 W

          Instruction Scheduler:
            Area = 10.7146 mm^2
            Peak Dynamic = 37.7065 W
            Subthreshold Leakage = 0.0418257 W
            Subthreshold Leakage with power gating = 0.0217749 W
            Gate Leakage = 0.0154611 W
            Runtime Dynamic = 7.54346 W

              Instruction Window:
                Area = 4.06074 mm^2
                Peak Dynamic = 5.17351 W
                Subthreshold Leakage = 0.0177249 W
                Subthreshold Leakage with power gating = 0.0100936 W
                Gate Leakage = 0.00495309 W
                Runtime Dynamic = 1.16197 W

              FP Instruction Window:
                Area = 1.31653 mm^2
                Peak Dynamic = 3.03616 W
                Subthreshold Leakage = 0.00376639 W
                Subthreshold Leakage with power gating = 0.00213725 W
                Gate Leakage = 0.00107917 W
                Runtime Dynamic = 0.677121 W

              ROB:
                Area = 5.33732 mm^2
                Peak Dynamic = 29.4968 W
                Subthreshold Leakage = 0.0203344 W
                Subthreshold Leakage with power gating = 0.00954406 W
                Gate Leakage = 0.00942888 W
                Runtime Dynamic = 5.70436 W

          Integer ALUs (Count: 6 ):
            Area = 0.96096 mm^2
            Peak Dynamic = 0.421178 W
            Subthreshold Leakage = 0.0885206 W
            Subthreshold Leakage with power gating = 0.0398343 W
            Gate Leakage = 0.0246721 W
            Runtime Dynamic = 0.516303 W

          Floating Point Units (FPUs) (Count: 2 ):
            Area = 18.634 mm^2
            Peak Dynamic = 0.670155 W
            Subthreshold Leakage = 0.429126 W
            Subthreshold Leakage with power gating = 0.193107 W
            Gate Leakage = 0.119605 W
            Runtime Dynamic = 0.621749 W

          Complex ALUs (Mul/Div) (Count: 1 ):
            Area = 0.48048 mm^2
            Peak Dynamic = 0.101455 W
            Subthreshold Leakage = 0.0442603 W
            Subthreshold Leakage with power gating = 0.0199171 W
            Gate Leakage = 0.0123361 W
            Runtime Dynamic = 0.294658 W

          Results Broadcast Bus:
            Area Overhead = 0.197443 mm^2
            Peak Dynamic = 0.639529 W
            Subthreshold Leakage = 0.0217785 W
            Subthreshold Leakage with power gating = 0.00980034 W
            Gate Leakage = 0.00607003 W
            Runtime Dynamic = 1.61854 W

*****************************************************************************************
L2
      Area = 379.836 mm^2
      Peak Dynamic = 0.455557 W
      Subthreshold Leakage = 3.15708 W
      Subthreshold Leakage with power gating = 1.67215 W
      Gate Leakage = 0.133698 W
      Runtime Dynamic = 0.304738 W

*****************************************************************************************
BUSES
      Area = 10.8685 mm^2
      Peak Dynamic = 0 W
      Subthreshold Leakage = 0.0246199 W
      Subthreshold Leakage with power gating = 0.011079 W
      Gate Leakage = 0.00686197 W
      Runtime Dynamic = 0 W

      Bus: 
        Area = 10.8685 mm^2
        Peak Dynamic = 0 W
        Subthreshold Leakage = 0.0246199 W
        Subthreshold Leakage with power gating = 0.011079 W
        Gate Leakage = 0.00686197 W
        Runtime Dynamic = 0 W

*****************************************************************************************
