McPAT (version 1.0 of Aug, 2013) is computing the target processor...
 
Warning: icache array structure cannot satisfy throughput constraint.
Warning: icache array structure cannot satisfy latency constraint.
Warning: Branch Target Buffer array structure cannot satisfy throughput constraint.
Warning: Branch Target Buffer array structure cannot satisfy latency constraint.
Warning: Global Predictor array structure cannot satisfy latency constraint.
Warning: Predictor Chooser array structure cannot satisfy latency constraint.
Warning: ReorderBuffer array structure cannot satisfy throughput constraint.
Warning: ReorderBuffer array structure cannot satisfy latency constraint.
Warning: icache array structure cannot satisfy throughput constraint.
Warning: icache array structure cannot satisfy latency constraint.
Warning: Branch Target Buffer array structure cannot satisfy throughput constraint.
Warning: Branch Target Buffer array structure cannot satisfy latency constraint.
Warning: Global Predictor array structure cannot satisfy latency constraint.
Warning: Predictor Chooser array structure cannot satisfy latency constraint.
Warning: ReorderBuffer array structure cannot satisfy throughput constraint.
Warning: ReorderBuffer array structure cannot satisfy latency constraint.
Warning: icache array structure cannot satisfy throughput constraint.
Warning: icache array structure cannot satisfy latency constraint.
Warning: Branch Target Buffer array structure cannot satisfy throughput constraint.
Warning: Branch Target Buffer array structure cannot satisfy latency constraint.
Warning: Global Predictor array structure cannot satisfy latency constraint.
Warning: Predictor Chooser array structure cannot satisfy latency constraint.
Warning: ReorderBuffer array structure cannot satisfy throughput constraint.
Warning: ReorderBuffer array structure cannot satisfy latency constraint.
Warning: icache array structure cannot satisfy throughput constraint.
Warning: icache array structure cannot satisfy latency constraint.
Warning: Branch Target Buffer array structure cannot satisfy throughput constraint.
Warning: Branch Target Buffer array structure cannot satisfy latency constraint.
Warning: Global Predictor array structure cannot satisfy latency constraint.
Warning: Predictor Chooser array structure cannot satisfy latency constraint.
Warning: ReorderBuffer array structure cannot satisfy throughput constraint.
Warning: ReorderBuffer array structure cannot satisfy latency constraint.
Warning: L2cache array structure cannot satisfy throughput constraint.
Warning: L2cache array structure cannot satisfy latency constraint.

McPAT (version 1.0 of Aug, 2013) results  (current print level is 5)
*****************************************************************************************
  Technology 90 nm
  Using Long Channel Devices When Appropriate
  Interconnect metal projection= aggressive interconnect technology projection
  Core clock Rate(MHz) 2660

*****************************************************************************************
Processor: 
  Area = 519.4 mm^2
  Peak Power = 354.072 W
  Total Leakage = 8.11488 W
  Peak Dynamic = 345.957 W
  Subthreshold Leakage = 6.36759 W
  Subthreshold Leakage with power gating = 3.01737 W
  Gate Leakage = 1.7473 W
  Runtime Dynamic = 91.5225 W

  Total Cores: 4 cores 
  Device Type= ITRS high performance device type
    Area = 447.39 mm^2
    Peak Dynamic = 345.676 W
    Subthreshold Leakage = 5.87319 W
    Subthreshold Leakage with power gating = 2.7594 W
    Gate Leakage = 1.71432 W
    Runtime Dynamic = 91.3894 W

  Total L2s: 
  Device Type= ITRS high performance device type
    Area = 63.4687 mm^2
    Peak Dynamic = 0.28043 W
    Subthreshold Leakage = 0.475053 W
    Subthreshold Leakage with power gating = 0.249269 W
    Gate Leakage = 0.0275875 W
    Runtime Dynamic = 0.133136 W

  Total NoCs (Network/Bus): 
  Device Type= ITRS high performance device type
    Area = 8.541 mm^2
    Peak Dynamic = 0 W
    Subthreshold Leakage = 0.0193475 W
    Subthreshold Leakage with power gating = 0.00870637 W
    Gate Leakage = 0.00539246 W
    Runtime Dynamic = 0 W

*****************************************************************************************
Core:
      Area = 111.848 mm^2
      Peak Dynamic = 89.1644 W
      Subthreshold Leakage = 1.4683 W
      Subthreshold Leakage with power gating = 0.68985 W
      Gate Leakage = 0.428579 W
      Runtime Dynamic = 25.4708 W

      Instruction Fetch Unit:
        Area = 35.1262 mm^2
        Peak Dynamic = 23.7517 W
        Subthreshold Leakage = 0.256071 W
        Subthreshold Leakage with power gating = 0.129447 W
        Gate Leakage = 0.0809514 W
        Runtime Dynamic = 2.5703 W

          Instruction Cache:
            Area = 12.7837 mm^2
            Peak Dynamic = 16.475 W
            Subthreshold Leakage = 0.0845276 W
            Subthreshold Leakage with power gating = 0.0444769 W
            Gate Leakage = 0.0302009 W
            Runtime Dynamic = 1.06914 W

          Branch Target Buffer:
            Area = 13.9086 mm^2
            Peak Dynamic = 1.84942 W
            Subthreshold Leakage = 0.0647654 W
            Subthreshold Leakage with power gating = 0.0363138 W
            Gate Leakage = 0.0260099 W
            Runtime Dynamic = 0.351182 W

          Branch Predictor:
            Area = 0.694038 mm^2
            Peak Dynamic = 0.186182 W
            Subthreshold Leakage = 0.00462789 W
            Subthreshold Leakage with power gating = 0.00265931 W
            Gate Leakage = 0.000938984 W
            Runtime Dynamic = 0.037925 W

              Global Predictor:
                Area = 0.240428 mm^2
                Peak Dynamic = 0.0626266 W
                Subthreshold Leakage = 0.00179307 W
                Subthreshold Leakage with power gating = 0.00102418 W
                Gate Leakage = 0.000376246 W
                Runtime Dynamic = 0.0134031 W

              Local Predictor:
              L1_Local Predictor:
                Area = 0.106865 mm^2
                Peak Dynamic = 0.032758 W
                Subthreshold Leakage = 0.000838092 W
                Subthreshold Leakage with power gating = 0.000489704 W
                Gate Leakage = 0.000143285 W
                Runtime Dynamic = 0.00719646 W

              L2_Local Predictor:
                Area = 0.0622213 mm^2
                Peak Dynamic = 0.0120857 W
                Subthreshold Leakage = 0.000398338 W
                Subthreshold Leakage with power gating = 0.000236419 W
                Gate Leakage = 7.80127e-05 W
                Runtime Dynamic = 0.0027906 W

              Chooser:
                Area = 0.240428 mm^2
                Peak Dynamic = 0.0626266 W
                Subthreshold Leakage = 0.00179307 W
                Subthreshold Leakage with power gating = 0.00102418 W
                Gate Leakage = 0.000376246 W
                Runtime Dynamic = 0.0134031 W

              RAS:
                Area = 0.0440946 mm^2
                Peak Dynamic = 0.0281704 W
                Subthreshold Leakage = 0.000203652 W
                Subthreshold Leakage with power gating = 0.000121237 W
                Gate Leakage = 4.32081e-05 W
                Runtime Dynamic = 0.00392231 W

          Instruction Buffer:
            Area = 0.101747 mm^2
            Peak Dynamic = 1.47822 W
            Subthreshold Leakage = 0.000332238 W
            Subthreshold Leakage with power gating = 0.000178818 W
            Gate Leakage = 6.33684e-05 W
            Runtime Dynamic = 0.272326 W

          Instruction Decoder:
            Area = 7.45796 mm^2
            Peak Dynamic = 3.03875 W
            Subthreshold Leakage = 0.0974743 W
            Subthreshold Leakage with power gating = 0.0438634 W
            Gate Leakage = 0.0206919 W
            Runtime Dynamic = 0.839723 W

      Renaming Unit:
        Area = 1.48092 mm^2
        Peak Dynamic = 11.2522 W
        Subthreshold Leakage = 0.0155062 W
        Subthreshold Leakage with power gating = 0.00832237 W
        Gate Leakage = 0.00803106 W
        Runtime Dynamic = 1.05773 W

          Int Front End RAT:
            Area = 0.460284 mm^2
            Peak Dynamic = 2.07947 W
            Subthreshold Leakage = 0.00134351 W
            Subthreshold Leakage with power gating = 0.000765799 W
            Gate Leakage = 0.000356514 W
            Runtime Dynamic = 0.532973 W

          FP Front End RAT:
            Area = 0.673946 mm^2
            Peak Dynamic = 8.35677 W
            Subthreshold Leakage = 0.00967319 W
            Subthreshold Leakage with power gating = 0.00551372 W
            Gate Leakage = 0.00458958 W
            Runtime Dynamic = 0.468841 W

          Free List:
            Area = 0.166478 mm^2
            Peak Dynamic = 0.0918468 W
            Subthreshold Leakage = 0.000146453 W
            Subthreshold Leakage with power gating = 8.84736e-05 W
            Gate Leakage = 3.86939e-05 W
            Runtime Dynamic = 0.0559145 W

      Load Store Unit:
        Area = 31.0201 mm^2
        Peak Dynamic = 11.9183 W
        Subthreshold Leakage = 0.134463 W
        Subthreshold Leakage with power gating = 0.0695374 W
        Gate Leakage = 0.0350882 W
        Runtime Dynamic = 5.14797 W

          Data Cache:
            Area = 23.8879 mm^2
            Peak Dynamic = 10.797 W
            Subthreshold Leakage = 0.12041 W
            Subthreshold Leakage with power gating = 0.0620482 W
            Gate Leakage = 0.0283949 W
            Runtime Dynamic = 3.71568 W

          LoadQ:
            Area = 0.336377 mm^2
            Peak Dynamic = 0.23928 W
            Subthreshold Leakage = 0.00207484 W
            Subthreshold Leakage with power gating = 0.00118266 W
            Gate Leakage = 0.000557836 W
            Runtime Dynamic = 0.23928 W

          StoreQ:
            Area = 1.29385 mm^2
            Peak Dynamic = 0.596508 W
            Subthreshold Leakage = 0.0076355 W
            Subthreshold Leakage with power gating = 0.00435224 W
            Gate Leakage = 0.00308913 W
            Runtime Dynamic = 1.19302 W

      Memory Management Unit:
        Area = 1.74319 mm^2
        Peak Dynamic = 1.68932 W
        Subthreshold Leakage = 0.0168886 W
        Subthreshold Leakage with power gating = 0.00910531 W
        Gate Leakage = 0.00754991 W
        Runtime Dynamic = 0.347991 W

          Itlb:
            Area = 1.21019 mm^2
            Peak Dynamic = 0.988875 W
            Subthreshold Leakage = 0.00914438 W
            Subthreshold Leakage with power gating = 0.0052123 W
            Gate Leakage = 0.00368346 W
            Runtime Dynamic = 0.152022 W

          Dtlb:
            Area = 0.352783 mm^2
            Peak Dynamic = 0.195633 W
            Subthreshold Leakage = 0.0034011 W
            Subthreshold Leakage with power gating = 0.00193863 W
            Gate Leakage = 0.000820167 W
            Runtime Dynamic = 0.195969 W

      Execution Unit:
        Area = 33.5042 mm^2
        Peak Dynamic = 40.5528 W
        Subthreshold Leakage = 0.632093 W
        Subthreshold Leakage with power gating = 0.287464 W
        Gate Leakage = 0.181772 W
        Runtime Dynamic = 16.3468 W

          Register Files:
            Area = 2.33649 mm^2
            Peak Dynamic = 0.447509 W
            Subthreshold Leakage = 0.00223782 W
            Subthreshold Leakage with power gating = 0.00107613 W
            Gate Leakage = 0.000581954 W
            Runtime Dynamic = 0.324309 W

              Integer RF:
                Area = 1.45379 mm^2
                Peak Dynamic = 0.316925 W
                Subthreshold Leakage = 0.0013575 W
                Subthreshold Leakage with power gating = 0.000634956 W
                Gate Leakage = 0.000364703 W
                Runtime Dynamic = 0.286023 W

              Floating Point RF:
                Area = 0.882698 mm^2
                Peak Dynamic = 0.130584 W
                Subthreshold Leakage = 0.000880313 W
                Subthreshold Leakage with power gating = 0.000441179 W
                Gate Leakage = 0.000217251 W
                Runtime Dynamic = 0.0382855 W

          Instruction Scheduler:
            Area = 10.7146 mm^2
            Peak Dynamic = 37.7065 W
            Subthreshold Leakage = 0.0418257 W
            Subthreshold Leakage with power gating = 0.0217749 W
            Gate Leakage = 0.0154611 W
            Runtime Dynamic = 12.0673 W

              Instruction Window:
                Area = 4.06074 mm^2
                Peak Dynamic = 5.17351 W
                Subthreshold Leakage = 0.0177249 W
                Subthreshold Leakage with power gating = 0.0100936 W
                Gate Leakage = 0.00495309 W
                Runtime Dynamic = 1.87029 W

              FP Instruction Window:
                Area = 1.31653 mm^2
                Peak Dynamic = 3.03616 W
                Subthreshold Leakage = 0.00376639 W
                Subthreshold Leakage with power gating = 0.00213725 W
                Gate Leakage = 0.00107917 W
                Runtime Dynamic = 1.08988 W

              ROB:
                Area = 5.33732 mm^2
                Peak Dynamic = 29.4968 W
                Subthreshold Leakage = 0.0203344 W
                Subthreshold Leakage with power gating = 0.00954406 W
                Gate Leakage = 0.00942888 W
                Runtime Dynamic = 9.10713 W

          Integer ALUs (Count: 6 ):
            Area = 0.96096 mm^2
            Peak Dynamic = 0.76375 W
            Subthreshold Leakage = 0.0885206 W
            Subthreshold Leakage with power gating = 0.0398343 W
            Gate Leakage = 0.0246721 W
            Runtime Dynamic = 0.804154 W

          Floating Point Units (FPUs) (Count: 2 ):
            Area = 18.634 mm^2
            Peak Dynamic = 0.54078 W
            Subthreshold Leakage = 0.429126 W
            Subthreshold Leakage with power gating = 0.193107 W
            Gate Leakage = 0.119605 W
            Runtime Dynamic = 0.561197 W

          Complex ALUs (Mul/Div) (Count: 1 ):
            Area = 0.48048 mm^2
            Peak Dynamic = 0.0813052 W
            Subthreshold Leakage = 0.0442603 W
            Subthreshold Leakage with power gating = 0.0199171 W
            Gate Leakage = 0.0123361 W
            Runtime Dynamic = 0.276929 W

          Results Broadcast Bus:
            Area Overhead = 0.197443 mm^2
            Peak Dynamic = 0.893166 W
            Subthreshold Leakage = 0.0217785 W
            Subthreshold Leakage with power gating = 0.00980034 W
            Gate Leakage = 0.00607003 W
            Runtime Dynamic = 2.31293 W

*****************************************************************************************
Core:
      Area = 111.848 mm^2
      Peak Dynamic = 88.4704 W
      Subthreshold Leakage = 1.4683 W
      Subthreshold Leakage with power gating = 0.68985 W
      Gate Leakage = 0.428579 W
      Runtime Dynamic = 24.1139 W

      Instruction Fetch Unit:
        Area = 35.1262 mm^2
        Peak Dynamic = 23.7517 W
        Subthreshold Leakage = 0.256071 W
        Subthreshold Leakage with power gating = 0.129447 W
        Gate Leakage = 0.0809514 W
        Runtime Dynamic = 2.25266 W

          Instruction Cache:
            Area = 12.7837 mm^2
            Peak Dynamic = 16.475 W
            Subthreshold Leakage = 0.0845276 W
            Subthreshold Leakage with power gating = 0.0444769 W
            Gate Leakage = 0.0302009 W
            Runtime Dynamic = 0.870098 W

          Branch Target Buffer:
            Area = 13.9086 mm^2
            Peak Dynamic = 1.84942 W
            Subthreshold Leakage = 0.0647654 W
            Subthreshold Leakage with power gating = 0.0363138 W
            Gate Leakage = 0.0260099 W
            Runtime Dynamic = 0.303509 W

          Branch Predictor:
            Area = 0.694038 mm^2
            Peak Dynamic = 0.186182 W
            Subthreshold Leakage = 0.00462789 W
            Subthreshold Leakage with power gating = 0.00265931 W
            Gate Leakage = 0.000938984 W
            Runtime Dynamic = 0.032818 W

              Global Predictor:
                Area = 0.240428 mm^2
                Peak Dynamic = 0.0626266 W
                Subthreshold Leakage = 0.00179307 W
                Subthreshold Leakage with power gating = 0.00102418 W
                Gate Leakage = 0.000376246 W
                Runtime Dynamic = 0.0114857 W

              Local Predictor:
              L1_Local Predictor:
                Area = 0.106865 mm^2
                Peak Dynamic = 0.032758 W
                Subthreshold Leakage = 0.000838092 W
                Subthreshold Leakage with power gating = 0.000489704 W
                Gate Leakage = 0.000143285 W
                Runtime Dynamic = 0.00615631 W

              L2_Local Predictor:
                Area = 0.0622213 mm^2
                Peak Dynamic = 0.0120857 W
                Subthreshold Leakage = 0.000398338 W
                Subthreshold Leakage with power gating = 0.000236419 W
                Gate Leakage = 7.80127e-05 W
                Runtime Dynamic = 0.00237966 W

              Chooser:
                Area = 0.240428 mm^2
                Peak Dynamic = 0.0626266 W
                Subthreshold Leakage = 0.00179307 W
                Subthreshold Leakage with power gating = 0.00102418 W
                Gate Leakage = 0.000376246 W
                Runtime Dynamic = 0.0114857 W

              RAS:
                Area = 0.0440946 mm^2
                Peak Dynamic = 0.0281704 W
                Subthreshold Leakage = 0.000203652 W
                Subthreshold Leakage with power gating = 0.000121237 W
                Gate Leakage = 4.32081e-05 W
                Runtime Dynamic = 0.00369016 W

          Instruction Buffer:
            Area = 0.101747 mm^2
            Peak Dynamic = 1.47822 W
            Subthreshold Leakage = 0.000332238 W
            Subthreshold Leakage with power gating = 0.000178818 W
            Gate Leakage = 6.33684e-05 W
            Runtime Dynamic = 0.256208 W

          Instruction Decoder:
            Area = 7.45796 mm^2
            Peak Dynamic = 3.03875 W
            Subthreshold Leakage = 0.0974743 W
            Subthreshold Leakage with power gating = 0.0438634 W
            Gate Leakage = 0.0206919 W
            Runtime Dynamic = 0.790023 W

      Renaming Unit:
        Area = 1.48092 mm^2
        Peak Dynamic = 11.2522 W
        Subthreshold Leakage = 0.0155062 W
        Subthreshold Leakage with power gating = 0.00832237 W
        Gate Leakage = 0.00803106 W
        Runtime Dynamic = 1.09225 W

          Int Front End RAT:
            Area = 0.460284 mm^2
            Peak Dynamic = 2.07947 W
            Subthreshold Leakage = 0.00134351 W
            Subthreshold Leakage with power gating = 0.000765799 W
            Gate Leakage = 0.000356514 W
            Runtime Dynamic = 0.500223 W

          FP Front End RAT:
            Area = 0.673946 mm^2
            Peak Dynamic = 8.35677 W
            Subthreshold Leakage = 0.00967319 W
            Subthreshold Leakage with power gating = 0.00551372 W
            Gate Leakage = 0.00458958 W
            Runtime Dynamic = 0.538352 W

          Free List:
            Area = 0.166478 mm^2
            Peak Dynamic = 0.0918468 W
            Subthreshold Leakage = 0.000146453 W
            Subthreshold Leakage with power gating = 8.84736e-05 W
            Gate Leakage = 3.86939e-05 W
            Runtime Dynamic = 0.0536741 W

      Load Store Unit:
        Area = 31.0201 mm^2
        Peak Dynamic = 11.2472 W
        Subthreshold Leakage = 0.134463 W
        Subthreshold Leakage with power gating = 0.0695374 W
        Gate Leakage = 0.0350882 W
        Runtime Dynamic = 4.76334 W

          Data Cache:
            Area = 23.8879 mm^2
            Peak Dynamic = 10.2115 W
            Subthreshold Leakage = 0.12041 W
            Subthreshold Leakage with power gating = 0.0620482 W
            Gate Leakage = 0.0283949 W
            Runtime Dynamic = 3.44027 W

          LoadQ:
            Area = 0.336377 mm^2
            Peak Dynamic = 0.221033 W
            Subthreshold Leakage = 0.00207484 W
            Subthreshold Leakage with power gating = 0.00118266 W
            Gate Leakage = 0.000557836 W
            Runtime Dynamic = 0.221034 W

          StoreQ:
            Area = 1.29385 mm^2
            Peak Dynamic = 0.551021 W
            Subthreshold Leakage = 0.0076355 W
            Subthreshold Leakage with power gating = 0.00435224 W
            Gate Leakage = 0.00308913 W
            Runtime Dynamic = 1.10204 W

      Memory Management Unit:
        Area = 1.74319 mm^2
        Peak Dynamic = 1.66352 W
        Subthreshold Leakage = 0.0168886 W
        Subthreshold Leakage with power gating = 0.00910531 W
        Gate Leakage = 0.00754991 W
        Runtime Dynamic = 0.314561 W

          Itlb:
            Area = 1.21019 mm^2
            Peak Dynamic = 0.988875 W
            Subthreshold Leakage = 0.00914438 W
            Subthreshold Leakage with power gating = 0.0052123 W
            Gate Leakage = 0.00368346 W
            Runtime Dynamic = 0.133411 W

          Dtlb:
            Area = 0.352783 mm^2
            Peak Dynamic = 0.180715 W
            Subthreshold Leakage = 0.0034011 W
            Subthreshold Leakage with power gating = 0.00193863 W
            Gate Leakage = 0.000820167 W
            Runtime Dynamic = 0.18115 W

      Execution Unit:
        Area = 33.5042 mm^2
        Peak Dynamic = 40.5557 W
        Subthreshold Leakage = 0.632093 W
        Subthreshold Leakage with power gating = 0.287464 W
        Gate Leakage = 0.181772 W
        Runtime Dynamic = 15.6911 W

          Register Files:
            Area = 2.33649 mm^2
            Peak Dynamic = 0.455911 W
            Subthreshold Leakage = 0.00223782 W
            Subthreshold Leakage with power gating = 0.00107613 W
            Gate Leakage = 0.000581954 W
            Runtime Dynamic = 0.305114 W

              Integer RF:
                Area = 1.45379 mm^2
                Peak Dynamic = 0.305967 W
                Subthreshold Leakage = 0.0013575 W
                Subthreshold Leakage with power gating = 0.000634956 W
                Gate Leakage = 0.000364703 W
                Runtime Dynamic = 0.269095 W

              Floating Point RF:
                Area = 0.882698 mm^2
                Peak Dynamic = 0.149944 W
                Subthreshold Leakage = 0.000880313 W
                Subthreshold Leakage with power gating = 0.000441179 W
                Gate Leakage = 0.000217251 W
                Runtime Dynamic = 0.0360195 W

          Instruction Scheduler:
            Area = 10.7146 mm^2
            Peak Dynamic = 37.7065 W
            Subthreshold Leakage = 0.0418257 W
            Subthreshold Leakage with power gating = 0.0217749 W
            Gate Leakage = 0.0154611 W
            Runtime Dynamic = 11.4626 W

              Instruction Window:
                Area = 4.06074 mm^2
                Peak Dynamic = 5.17351 W
                Subthreshold Leakage = 0.0177249 W
                Subthreshold Leakage with power gating = 0.0100936 W
                Gate Leakage = 0.00495309 W
                Runtime Dynamic = 1.7596 W

              FP Instruction Window:
                Area = 1.31653 mm^2
                Peak Dynamic = 3.03616 W
                Subthreshold Leakage = 0.00376639 W
                Subthreshold Leakage with power gating = 0.00213725 W
                Gate Leakage = 0.00107917 W
                Runtime Dynamic = 1.02538 W

              ROB:
                Area = 5.33732 mm^2
                Peak Dynamic = 29.4968 W
                Subthreshold Leakage = 0.0203344 W
                Subthreshold Leakage with power gating = 0.00954406 W
                Gate Leakage = 0.00942888 W
                Runtime Dynamic = 8.67765 W

          Integer ALUs (Count: 6 ):
            Area = 0.96096 mm^2
            Peak Dynamic = 0.700647 W
            Subthreshold Leakage = 0.0885206 W
            Subthreshold Leakage with power gating = 0.0398343 W
            Gate Leakage = 0.0246721 W
            Runtime Dynamic = 0.767236 W

          Floating Point Units (FPUs) (Count: 2 ):
            Area = 18.634 mm^2
            Peak Dynamic = 0.620957 W
            Subthreshold Leakage = 0.429126 W
            Subthreshold Leakage with power gating = 0.193107 W
            Gate Leakage = 0.119605 W
            Runtime Dynamic = 0.598723 W

          Complex ALUs (Mul/Div) (Count: 1 ):
            Area = 0.48048 mm^2
            Peak Dynamic = 0.0934457 W
            Subthreshold Leakage = 0.0442603 W
            Subthreshold Leakage with power gating = 0.0199171 W
            Gate Leakage = 0.0123361 W
            Runtime Dynamic = 0.28761 W

          Results Broadcast Bus:
            Area Overhead = 0.197443 mm^2
            Peak Dynamic = 0.868327 W
            Subthreshold Leakage = 0.0217785 W
            Subthreshold Leakage with power gating = 0.00980034 W
            Gate Leakage = 0.00607003 W
            Runtime Dynamic = 2.26982 W

*****************************************************************************************
Core:
      Area = 111.848 mm^2
      Peak Dynamic = 90.7876 W
      Subthreshold Leakage = 1.4683 W
      Subthreshold Leakage with power gating = 0.68985 W
      Gate Leakage = 0.428579 W
      Runtime Dynamic = 26.8381 W

      Instruction Fetch Unit:
        Area = 35.1262 mm^2
        Peak Dynamic = 23.7517 W
        Subthreshold Leakage = 0.256071 W
        Subthreshold Leakage with power gating = 0.129447 W
        Gate Leakage = 0.0809514 W
        Runtime Dynamic = 2.3921 W

          Instruction Cache:
            Area = 12.7837 mm^2
            Peak Dynamic = 16.475 W
            Subthreshold Leakage = 0.0845276 W
            Subthreshold Leakage with power gating = 0.0444769 W
            Gate Leakage = 0.0302009 W
            Runtime Dynamic = 0.89759 W

          Branch Target Buffer:
            Area = 13.9086 mm^2
            Peak Dynamic = 1.84942 W
            Subthreshold Leakage = 0.0647654 W
            Subthreshold Leakage with power gating = 0.0363138 W
            Gate Leakage = 0.0260099 W
            Runtime Dynamic = 0.370568 W

          Branch Predictor:
            Area = 0.694038 mm^2
            Peak Dynamic = 0.186182 W
            Subthreshold Leakage = 0.00462789 W
            Subthreshold Leakage with power gating = 0.00265931 W
            Gate Leakage = 0.000938984 W
            Runtime Dynamic = 0.0394953 W

              Global Predictor:
                Area = 0.240428 mm^2
                Peak Dynamic = 0.0626266 W
                Subthreshold Leakage = 0.00179307 W
                Subthreshold Leakage with power gating = 0.00102418 W
                Gate Leakage = 0.000376246 W
                Runtime Dynamic = 0.0140639 W

              Local Predictor:
              L1_Local Predictor:
                Area = 0.106865 mm^2
                Peak Dynamic = 0.032758 W
                Subthreshold Leakage = 0.000838092 W
                Subthreshold Leakage with power gating = 0.000489704 W
                Gate Leakage = 0.000143285 W
                Runtime Dynamic = 0.00754263 W

              L2_Local Predictor:
                Area = 0.0622213 mm^2
                Peak Dynamic = 0.0120857 W
                Subthreshold Leakage = 0.000398338 W
                Subthreshold Leakage with power gating = 0.000236419 W
                Gate Leakage = 7.80127e-05 W
                Runtime Dynamic = 0.0029187 W

              Chooser:
                Area = 0.240428 mm^2
                Peak Dynamic = 0.0626266 W
                Subthreshold Leakage = 0.00179307 W
                Subthreshold Leakage with power gating = 0.00102418 W
                Gate Leakage = 0.000376246 W
                Runtime Dynamic = 0.0140639 W

              RAS:
                Area = 0.0440946 mm^2
                Peak Dynamic = 0.0281704 W
                Subthreshold Leakage = 0.000203652 W
                Subthreshold Leakage with power gating = 0.000121237 W
                Gate Leakage = 4.32081e-05 W
                Runtime Dynamic = 0.00382495 W

          Instruction Buffer:
            Area = 0.101747 mm^2
            Peak Dynamic = 1.47822 W
            Subthreshold Leakage = 0.000332238 W
            Subthreshold Leakage with power gating = 0.000178818 W
            Gate Leakage = 6.33684e-05 W
            Runtime Dynamic = 0.265567 W

          Instruction Decoder:
            Area = 7.45796 mm^2
            Peak Dynamic = 3.03875 W
            Subthreshold Leakage = 0.0974743 W
            Subthreshold Leakage with power gating = 0.0438634 W
            Gate Leakage = 0.0206919 W
            Runtime Dynamic = 0.81888 W

      Renaming Unit:
        Area = 1.48092 mm^2
        Peak Dynamic = 11.2522 W
        Subthreshold Leakage = 0.0155062 W
        Subthreshold Leakage with power gating = 0.00832237 W
        Gate Leakage = 0.00803106 W
        Runtime Dynamic = 1.08417 W

          Int Front End RAT:
            Area = 0.460284 mm^2
            Peak Dynamic = 2.07947 W
            Subthreshold Leakage = 0.00134351 W
            Subthreshold Leakage with power gating = 0.000765799 W
            Gate Leakage = 0.000356514 W
            Runtime Dynamic = 0.515799 W

          FP Front End RAT:
            Area = 0.673946 mm^2
            Peak Dynamic = 8.35677 W
            Subthreshold Leakage = 0.00967319 W
            Subthreshold Leakage with power gating = 0.00551372 W
            Gate Leakage = 0.00458958 W
            Runtime Dynamic = 0.51323 W

          Free List:
            Area = 0.166478 mm^2
            Peak Dynamic = 0.0918468 W
            Subthreshold Leakage = 0.000146453 W
            Subthreshold Leakage with power gating = 8.84736e-05 W
            Gate Leakage = 3.86939e-05 W
            Runtime Dynamic = 0.0551424 W

      Load Store Unit:
        Area = 31.0201 mm^2
        Peak Dynamic = 13.4553 W
        Subthreshold Leakage = 0.134463 W
        Subthreshold Leakage with power gating = 0.0695374 W
        Gate Leakage = 0.0350882 W
        Runtime Dynamic = 6.04983 W

          Data Cache:
            Area = 23.8879 mm^2
            Peak Dynamic = 12.1382 W
            Subthreshold Leakage = 0.12041 W
            Subthreshold Leakage with power gating = 0.0620482 W
            Gate Leakage = 0.0283949 W
            Runtime Dynamic = 4.36736 W

          LoadQ:
            Area = 0.336377 mm^2
            Peak Dynamic = 0.281074 W
            Subthreshold Leakage = 0.00207484 W
            Subthreshold Leakage with power gating = 0.00118266 W
            Gate Leakage = 0.000557836 W
            Runtime Dynamic = 0.281073 W

          StoreQ:
            Area = 1.29385 mm^2
            Peak Dynamic = 0.700697 W
            Subthreshold Leakage = 0.0076355 W
            Subthreshold Leakage with power gating = 0.00435224 W
            Gate Leakage = 0.00308913 W
            Runtime Dynamic = 1.40139 W

      Memory Management Unit:
        Area = 1.74319 mm^2
        Peak Dynamic = 1.74842 W
        Subthreshold Leakage = 0.0168886 W
        Subthreshold Leakage with power gating = 0.00910531 W
        Gate Leakage = 0.00754991 W
        Runtime Dynamic = 0.36797 W

          Itlb:
            Area = 1.21019 mm^2
            Peak Dynamic = 0.988875 W
            Subthreshold Leakage = 0.00914438 W
            Subthreshold Leakage with power gating = 0.0052123 W
            Gate Leakage = 0.00368346 W
            Runtime Dynamic = 0.137691 W

          Dtlb:
            Area = 0.352783 mm^2
            Peak Dynamic = 0.229803 W
            Subthreshold Leakage = 0.0034011 W
            Subthreshold Leakage with power gating = 0.00193863 W
            Gate Leakage = 0.000820167 W
            Runtime Dynamic = 0.230279 W

      Execution Unit:
        Area = 33.5042 mm^2
        Peak Dynamic = 40.5799 W
        Subthreshold Leakage = 0.632093 W
        Subthreshold Leakage with power gating = 0.287464 W
        Gate Leakage = 0.181772 W
        Runtime Dynamic = 16.944 W

          Register Files:
            Area = 2.33649 mm^2
            Peak Dynamic = 0.456323 W
            Subthreshold Leakage = 0.00223782 W
            Subthreshold Leakage with power gating = 0.00107613 W
            Gate Leakage = 0.000581954 W
            Runtime Dynamic = 0.316259 W

              Integer RF:
                Area = 1.45379 mm^2
                Peak Dynamic = 0.313375 W
                Subthreshold Leakage = 0.0013575 W
                Subthreshold Leakage with power gating = 0.000634956 W
                Gate Leakage = 0.000364703 W
                Runtime Dynamic = 0.278924 W

              Floating Point RF:
                Area = 0.882698 mm^2
                Peak Dynamic = 0.142948 W
                Subthreshold Leakage = 0.000880313 W
                Subthreshold Leakage with power gating = 0.000441179 W
                Gate Leakage = 0.000217251 W
                Runtime Dynamic = 0.0373352 W

          Instruction Scheduler:
            Area = 10.7146 mm^2
            Peak Dynamic = 37.7065 W
            Subthreshold Leakage = 0.0418257 W
            Subthreshold Leakage with power gating = 0.0217749 W
            Gate Leakage = 0.0154611 W
            Runtime Dynamic = 12.4793 W

              Instruction Window:
                Area = 4.06074 mm^2
                Peak Dynamic = 5.17351 W
                Subthreshold Leakage = 0.0177249 W
                Subthreshold Leakage with power gating = 0.0100936 W
                Gate Leakage = 0.00495309 W
                Runtime Dynamic = 1.82387 W

              FP Instruction Window:
                Area = 1.31653 mm^2
                Peak Dynamic = 3.03616 W
                Subthreshold Leakage = 0.00376639 W
                Subthreshold Leakage with power gating = 0.00213725 W
                Gate Leakage = 0.00107917 W
                Runtime Dynamic = 1.06283 W

              ROB:
                Area = 5.33732 mm^2
                Peak Dynamic = 29.4968 W
                Subthreshold Leakage = 0.0203344 W
                Subthreshold Leakage with power gating = 0.00954406 W
                Gate Leakage = 0.00942888 W
                Runtime Dynamic = 9.59264 W

          Integer ALUs (Count: 6 ):
            Area = 0.96096 mm^2
            Peak Dynamic = 0.734482 W
            Subthreshold Leakage = 0.0885206 W
            Subthreshold Leakage with power gating = 0.0398343 W
            Gate Leakage = 0.0246721 W
            Runtime Dynamic = 0.837789 W

          Floating Point Units (FPUs) (Count: 2 ):
            Area = 18.634 mm^2
            Peak Dynamic = 0.591982 W
            Subthreshold Leakage = 0.429126 W
            Subthreshold Leakage with power gating = 0.193107 W
            Gate Leakage = 0.119605 W
            Runtime Dynamic = 0.58516 W

          Complex ALUs (Mul/Div) (Count: 1 ):
            Area = 0.48048 mm^2
            Peak Dynamic = 0.0888343 W
            Subthreshold Leakage = 0.0442603 W
            Subthreshold Leakage with power gating = 0.0199171 W
            Gate Leakage = 0.0123361 W
            Runtime Dynamic = 0.283553 W

          Results Broadcast Bus:
            Area Overhead = 0.197443 mm^2
            Peak Dynamic = 0.886573 W
            Subthreshold Leakage = 0.0217785 W
            Subthreshold Leakage with power gating = 0.00980034 W
            Gate Leakage = 0.00607003 W
            Runtime Dynamic = 2.44188 W

*****************************************************************************************
Core:
      Area = 111.848 mm^2
      Peak Dynamic = 77.2538 W
      Subthreshold Leakage = 1.4683 W
      Subthreshold Leakage with power gating = 0.68985 W
      Gate Leakage = 0.428579 W
      Runtime Dynamic = 14.9666 W

      Instruction Fetch Unit:
        Area = 35.1262 mm^2
        Peak Dynamic = 17.5593 W
        Subthreshold Leakage = 0.256071 W
        Subthreshold Leakage with power gating = 0.129447 W
        Gate Leakage = 0.0809514 W
        Runtime Dynamic = 1.28574 W

          Instruction Cache:
            Area = 12.7837 mm^2
            Peak Dynamic = 10.5433 W
            Subthreshold Leakage = 0.0845276 W
            Subthreshold Leakage with power gating = 0.0444769 W
            Gate Leakage = 0.0302009 W
            Runtime Dynamic = 0.478221 W

          Branch Target Buffer:
            Area = 13.9086 mm^2
            Peak Dynamic = 1.84942 W
            Subthreshold Leakage = 0.0647654 W
            Subthreshold Leakage with power gating = 0.0363138 W
            Gate Leakage = 0.0260099 W
            Runtime Dynamic = 0.146787 W

          Branch Predictor:
            Area = 0.694038 mm^2
            Peak Dynamic = 0.186182 W
            Subthreshold Leakage = 0.00462789 W
            Subthreshold Leakage with power gating = 0.00265931 W
            Gate Leakage = 0.000938984 W
            Runtime Dynamic = 0.0169017 W

              Global Predictor:
                Area = 0.240428 mm^2
                Peak Dynamic = 0.0626266 W
                Subthreshold Leakage = 0.00179307 W
                Subthreshold Leakage with power gating = 0.00102418 W
                Gate Leakage = 0.000376246 W
                Runtime Dynamic = 0.00576035 W

              Local Predictor:
              L1_Local Predictor:
                Area = 0.106865 mm^2
                Peak Dynamic = 0.032758 W
                Subthreshold Leakage = 0.000838092 W
                Subthreshold Leakage with power gating = 0.000489704 W
                Gate Leakage = 0.000143285 W
                Runtime Dynamic = 0.00311012 W

              L2_Local Predictor:
                Area = 0.0622213 mm^2
                Peak Dynamic = 0.0120857 W
                Subthreshold Leakage = 0.000398338 W
                Subthreshold Leakage with power gating = 0.000236419 W
                Gate Leakage = 7.80127e-05 W
                Runtime Dynamic = 0.00121828 W

              Chooser:
                Area = 0.240428 mm^2
                Peak Dynamic = 0.0626266 W
                Subthreshold Leakage = 0.00179307 W
                Subthreshold Leakage with power gating = 0.00102418 W
                Gate Leakage = 0.000376246 W
                Runtime Dynamic = 0.00576035 W

              RAS:
                Area = 0.0440946 mm^2
                Peak Dynamic = 0.0281704 W
                Subthreshold Leakage = 0.000203652 W
                Subthreshold Leakage with power gating = 0.000121237 W
                Gate Leakage = 4.32081e-05 W
                Runtime Dynamic = 0.00227087 W

          Instruction Buffer:
            Area = 0.101747 mm^2
            Peak Dynamic = 1.47822 W
            Subthreshold Leakage = 0.000332238 W
            Subthreshold Leakage with power gating = 0.000178818 W
            Gate Leakage = 6.33684e-05 W
            Runtime Dynamic = 0.157666 W

          Instruction Decoder:
            Area = 7.45796 mm^2
            Peak Dynamic = 3.03875 W
            Subthreshold Leakage = 0.0974743 W
            Subthreshold Leakage with power gating = 0.0438634 W
            Gate Leakage = 0.0206919 W
            Runtime Dynamic = 0.486167 W

      Renaming Unit:
        Area = 1.48092 mm^2
        Peak Dynamic = 11.2522 W
        Subthreshold Leakage = 0.0155062 W
        Subthreshold Leakage with power gating = 0.00832237 W
        Gate Leakage = 0.00803106 W
        Runtime Dynamic = 0.872438 W

          Int Front End RAT:
            Area = 0.460284 mm^2
            Peak Dynamic = 2.07947 W
            Subthreshold Leakage = 0.00134351 W
            Subthreshold Leakage with power gating = 0.000765799 W
            Gate Leakage = 0.000356514 W
            Runtime Dynamic = 0.304152 W

          FP Front End RAT:
            Area = 0.673946 mm^2
            Peak Dynamic = 8.35677 W
            Subthreshold Leakage = 0.00967319 W
            Subthreshold Leakage with power gating = 0.00551372 W
            Gate Leakage = 0.00458958 W
            Runtime Dynamic = 0.533038 W

          Free List:
            Area = 0.166478 mm^2
            Peak Dynamic = 0.0918468 W
            Subthreshold Leakage = 0.000146453 W
            Subthreshold Leakage with power gating = 8.84736e-05 W
            Gate Leakage = 3.86939e-05 W
            Runtime Dynamic = 0.0352475 W

      Load Store Unit:
        Area = 31.0201 mm^2
        Peak Dynamic = 7.46446 W
        Subthreshold Leakage = 0.134463 W
        Subthreshold Leakage with power gating = 0.0695374 W
        Gate Leakage = 0.0350882 W
        Runtime Dynamic = 2.54388 W

          Data Cache:
            Area = 23.8879 mm^2
            Peak Dynamic = 6.91068 W
            Subthreshold Leakage = 0.12041 W
            Subthreshold Leakage with power gating = 0.0620482 W
            Gate Leakage = 0.0283949 W
            Runtime Dynamic = 1.83648 W

          LoadQ:
            Area = 0.336377 mm^2
            Peak Dynamic = 0.118177 W
            Subthreshold Leakage = 0.00207484 W
            Subthreshold Leakage with power gating = 0.00118266 W
            Gate Leakage = 0.000557836 W
            Runtime Dynamic = 0.118178 W

          StoreQ:
            Area = 1.29385 mm^2
            Peak Dynamic = 0.294608 W
            Subthreshold Leakage = 0.0076355 W
            Subthreshold Leakage with power gating = 0.00435224 W
            Gate Leakage = 0.00308913 W
            Runtime Dynamic = 0.589217 W

      Memory Management Unit:
        Area = 1.74319 mm^2
        Peak Dynamic = 1.16203 W
        Subthreshold Leakage = 0.0168886 W
        Subthreshold Leakage with power gating = 0.00910531 W
        Gate Leakage = 0.00754991 W
        Runtime Dynamic = 0.169893 W

          Itlb:
            Area = 1.21019 mm^2
            Peak Dynamic = 0.632838 W
            Subthreshold Leakage = 0.00914438 W
            Subthreshold Leakage with power gating = 0.0052123 W
            Gate Leakage = 0.00368346 W
            Runtime Dynamic = 0.0729296 W

          Dtlb:
            Area = 0.352783 mm^2
            Peak Dynamic = 0.0966207 W
            Subthreshold Leakage = 0.0034011 W
            Subthreshold Leakage with power gating = 0.00193863 W
            Gate Leakage = 0.000820167 W
            Runtime Dynamic = 0.0969633 W

      Execution Unit:
        Area = 33.5042 mm^2
        Peak Dynamic = 39.8158 W
        Subthreshold Leakage = 0.632093 W
        Subthreshold Leakage with power gating = 0.287464 W
        Gate Leakage = 0.181772 W
        Runtime Dynamic = 10.0946 W

          Register Files:
            Area = 2.33649 mm^2
            Peak Dynamic = 0.353028 W
            Subthreshold Leakage = 0.00223782 W
            Subthreshold Leakage with power gating = 0.00107613 W
            Gate Leakage = 0.000581954 W
            Runtime Dynamic = 0.187762 W

              Integer RF:
                Area = 1.45379 mm^2
                Peak Dynamic = 0.204564 W
                Subthreshold Leakage = 0.0013575 W
                Subthreshold Leakage with power gating = 0.000634956 W
                Gate Leakage = 0.000364703 W
                Runtime Dynamic = 0.165596 W

              Floating Point RF:
                Area = 0.882698 mm^2
                Peak Dynamic = 0.148464 W
                Subthreshold Leakage = 0.000880313 W
                Subthreshold Leakage with power gating = 0.000441179 W
                Gate Leakage = 0.000217251 W
                Runtime Dynamic = 0.0221658 W

          Instruction Scheduler:
            Area = 10.7146 mm^2
            Peak Dynamic = 37.7065 W
            Subthreshold Leakage = 0.0418257 W
            Subthreshold Leakage with power gating = 0.0217749 W
            Gate Leakage = 0.0154611 W
            Runtime Dynamic = 7.03077 W

              Instruction Window:
                Area = 4.06074 mm^2
                Peak Dynamic = 5.17351 W
                Subthreshold Leakage = 0.0177249 W
                Subthreshold Leakage with power gating = 0.0100936 W
                Gate Leakage = 0.00495309 W
                Runtime Dynamic = 1.08283 W

              FP Instruction Window:
                Area = 1.31653 mm^2
                Peak Dynamic = 3.03616 W
                Subthreshold Leakage = 0.00376639 W
                Subthreshold Leakage with power gating = 0.00213725 W
                Gate Leakage = 0.00107917 W
                Runtime Dynamic = 0.631 W

              ROB:
                Area = 5.33732 mm^2
                Peak Dynamic = 29.4968 W
                Subthreshold Leakage = 0.0203344 W
                Subthreshold Leakage with power gating = 0.00954406 W
                Gate Leakage = 0.00942888 W
                Runtime Dynamic = 5.31694 W

          Integer ALUs (Count: 6 ):
            Area = 0.96096 mm^2
            Peak Dynamic = 0.394038 W
            Subthreshold Leakage = 0.0885206 W
            Subthreshold Leakage with power gating = 0.0398343 W
            Gate Leakage = 0.0246721 W
            Runtime Dynamic = 0.489237 W

          Floating Point Units (FPUs) (Count: 2 ):
            Area = 18.634 mm^2
            Peak Dynamic = 0.614827 W
            Subthreshold Leakage = 0.429126 W
            Subthreshold Leakage with power gating = 0.193107 W
            Gate Leakage = 0.119605 W
            Runtime Dynamic = 0.595854 W

          Complex ALUs (Mul/Div) (Count: 1 ):
            Area = 0.48048 mm^2
            Peak Dynamic = 0.0927928 W
            Subthreshold Leakage = 0.0442603 W
            Subthreshold Leakage with power gating = 0.0199171 W
            Gate Leakage = 0.0123361 W
            Runtime Dynamic = 0.287036 W

          Results Broadcast Bus:
            Area Overhead = 0.197443 mm^2
            Peak Dynamic = 0.592803 W
            Subthreshold Leakage = 0.0217785 W
            Subthreshold Leakage with power gating = 0.00980034 W
            Gate Leakage = 0.00607003 W
            Runtime Dynamic = 1.50395 W

*****************************************************************************************
L2
      Area = 63.4687 mm^2
      Peak Dynamic = 0.28043 W
      Subthreshold Leakage = 0.475053 W
      Subthreshold Leakage with power gating = 0.249269 W
      Gate Leakage = 0.0275875 W
      Runtime Dynamic = 0.133136 W

*****************************************************************************************
BUSES
      Area = 8.541 mm^2
      Peak Dynamic = 0 W
      Subthreshold Leakage = 0.0193475 W
      Subthreshold Leakage with power gating = 0.00870637 W
      Gate Leakage = 0.00539246 W
      Runtime Dynamic = 0 W

      Bus: 
        Area = 8.541 mm^2
        Peak Dynamic = 0 W
        Subthreshold Leakage = 0.0193475 W
        Subthreshold Leakage with power gating = 0.00870637 W
        Gate Leakage = 0.00539246 W
        Runtime Dynamic = 0 W

*****************************************************************************************
