McPAT (version 1.0 of Aug, 2013) is computing the target processor...
 
Warning: icache array structure cannot satisfy throughput constraint.
Warning: icache array structure cannot satisfy latency constraint.
Warning: Branch Target Buffer array structure cannot satisfy throughput constraint.
Warning: Branch Target Buffer array structure cannot satisfy latency constraint.
Warning: Global Predictor array structure cannot satisfy latency constraint.
Warning: Predictor Chooser array structure cannot satisfy latency constraint.
Warning: ReorderBuffer array structure cannot satisfy throughput constraint.
Warning: ReorderBuffer array structure cannot satisfy latency constraint.
Warning: icache array structure cannot satisfy throughput constraint.
Warning: icache array structure cannot satisfy latency constraint.
Warning: Branch Target Buffer array structure cannot satisfy throughput constraint.
Warning: Branch Target Buffer array structure cannot satisfy latency constraint.
Warning: Global Predictor array structure cannot satisfy latency constraint.
Warning: Predictor Chooser array structure cannot satisfy latency constraint.
Warning: ReorderBuffer array structure cannot satisfy throughput constraint.
Warning: ReorderBuffer array structure cannot satisfy latency constraint.
Warning: icache array structure cannot satisfy throughput constraint.
Warning: icache array structure cannot satisfy latency constraint.
Warning: Branch Target Buffer array structure cannot satisfy throughput constraint.
Warning: Branch Target Buffer array structure cannot satisfy latency constraint.
Warning: Global Predictor array structure cannot satisfy latency constraint.
Warning: Predictor Chooser array structure cannot satisfy latency constraint.
Warning: ReorderBuffer array structure cannot satisfy throughput constraint.
Warning: ReorderBuffer array structure cannot satisfy latency constraint.
Warning: icache array structure cannot satisfy throughput constraint.
Warning: icache array structure cannot satisfy latency constraint.
Warning: Branch Target Buffer array structure cannot satisfy throughput constraint.
Warning: Branch Target Buffer array structure cannot satisfy latency constraint.
Warning: Global Predictor array structure cannot satisfy latency constraint.
Warning: Predictor Chooser array structure cannot satisfy latency constraint.
Warning: ReorderBuffer array structure cannot satisfy throughput constraint.
Warning: ReorderBuffer array structure cannot satisfy latency constraint.
Warning: L2cache array structure cannot satisfy throughput constraint.
Warning: L2cache array structure cannot satisfy latency constraint.

McPAT (version 1.0 of Aug, 2013) results  (current print level is 5)
*****************************************************************************************
  Technology 90 nm
  Using Long Channel Devices When Appropriate
  Interconnect metal projection= aggressive interconnect technology projection
  Core clock Rate(MHz) 2660

*****************************************************************************************
Processor: 
  Area = 838.095 mm^2
  Peak Power = 384.09 W
  Total Leakage = 10.9098 W
  Peak Dynamic = 373.18 W
  Subthreshold Leakage = 9.05488 W
  Subthreshold Leakage with power gating = 4.44263 W
  Gate Leakage = 1.85488 W
  Runtime Dynamic = 147.499 W

  Total Cores: 4 cores 
  Device Type= ITRS high performance device type
    Area = 447.39 mm^2
    Peak Dynamic = 371.635 W
    Subthreshold Leakage = 5.87319 W
    Subthreshold Leakage with power gating = 2.7594 W
    Gate Leakage = 1.71432 W
    Runtime Dynamic = 146.457 W

  Total L2s: 
  Device Type= ITRS high performance device type
    Area = 379.836 mm^2
    Peak Dynamic = 1.54534 W
    Subthreshold Leakage = 3.15708 W
    Subthreshold Leakage with power gating = 1.67215 W
    Gate Leakage = 0.133698 W
    Runtime Dynamic = 1.04196 W

  Total NoCs (Network/Bus): 
  Device Type= ITRS high performance device type
    Area = 10.8685 mm^2
    Peak Dynamic = 0 W
    Subthreshold Leakage = 0.0246199 W
    Subthreshold Leakage with power gating = 0.011079 W
    Gate Leakage = 0.00686197 W
    Runtime Dynamic = 0 W

*****************************************************************************************
Core:
      Area = 111.848 mm^2
      Peak Dynamic = 88.5549 W
      Subthreshold Leakage = 1.4683 W
      Subthreshold Leakage with power gating = 0.68985 W
      Gate Leakage = 0.428579 W
      Runtime Dynamic = 25.6501 W

      Instruction Fetch Unit:
        Area = 35.1262 mm^2
        Peak Dynamic = 23.7517 W
        Subthreshold Leakage = 0.256071 W
        Subthreshold Leakage with power gating = 0.129447 W
        Gate Leakage = 0.0809514 W
        Runtime Dynamic = 2.43446 W

          Instruction Cache:
            Area = 12.7837 mm^2
            Peak Dynamic = 16.475 W
            Subthreshold Leakage = 0.0845276 W
            Subthreshold Leakage with power gating = 0.0444769 W
            Gate Leakage = 0.0302009 W
            Runtime Dynamic = 0.966747 W

          Branch Target Buffer:
            Area = 13.9086 mm^2
            Peak Dynamic = 1.84942 W
            Subthreshold Leakage = 0.0647654 W
            Subthreshold Leakage with power gating = 0.0363138 W
            Gate Leakage = 0.0260099 W
            Runtime Dynamic = 0.271357 W

          Branch Predictor:
            Area = 0.694038 mm^2
            Peak Dynamic = 0.186182 W
            Subthreshold Leakage = 0.00462789 W
            Subthreshold Leakage with power gating = 0.00265931 W
            Gate Leakage = 0.000938984 W
            Runtime Dynamic = 0.0292233 W

              Global Predictor:
                Area = 0.240428 mm^2
                Peak Dynamic = 0.0626266 W
                Subthreshold Leakage = 0.00179307 W
                Subthreshold Leakage with power gating = 0.00102418 W
                Gate Leakage = 0.000376246 W
                Runtime Dynamic = 0.00991546 W

              Local Predictor:
              L1_Local Predictor:
                Area = 0.106865 mm^2
                Peak Dynamic = 0.032758 W
                Subthreshold Leakage = 0.000838092 W
                Subthreshold Leakage with power gating = 0.000489704 W
                Gate Leakage = 0.000143285 W
                Runtime Dynamic = 0.00527577 W

              L2_Local Predictor:
                Area = 0.0622213 mm^2
                Peak Dynamic = 0.0120857 W
                Subthreshold Leakage = 0.000398338 W
                Subthreshold Leakage with power gating = 0.000236419 W
                Gate Leakage = 7.80127e-05 W
                Runtime Dynamic = 0.00201161 W

              Chooser:
                Area = 0.240428 mm^2
                Peak Dynamic = 0.0626266 W
                Subthreshold Leakage = 0.00179307 W
                Subthreshold Leakage with power gating = 0.00102418 W
                Gate Leakage = 0.000376246 W
                Runtime Dynamic = 0.00991546 W

              RAS:
                Area = 0.0440946 mm^2
                Peak Dynamic = 0.0281704 W
                Subthreshold Leakage = 0.000203652 W
                Subthreshold Leakage with power gating = 0.000121237 W
                Gate Leakage = 4.32081e-05 W
                Runtime Dynamic = 0.00411661 W

          Instruction Buffer:
            Area = 0.101747 mm^2
            Peak Dynamic = 1.47822 W
            Subthreshold Leakage = 0.000332238 W
            Subthreshold Leakage with power gating = 0.000178818 W
            Gate Leakage = 6.33684e-05 W
            Runtime Dynamic = 0.285817 W

          Instruction Decoder:
            Area = 7.45796 mm^2
            Peak Dynamic = 3.03875 W
            Subthreshold Leakage = 0.0974743 W
            Subthreshold Leakage with power gating = 0.0438634 W
            Gate Leakage = 0.0206919 W
            Runtime Dynamic = 0.881321 W

      Renaming Unit:
        Area = 1.48092 mm^2
        Peak Dynamic = 11.2522 W
        Subthreshold Leakage = 0.0155062 W
        Subthreshold Leakage with power gating = 0.00832237 W
        Gate Leakage = 0.00803106 W
        Runtime Dynamic = 0.911243 W

          Int Front End RAT:
            Area = 0.460284 mm^2
            Peak Dynamic = 2.07947 W
            Subthreshold Leakage = 0.00134351 W
            Subthreshold Leakage with power gating = 0.000765799 W
            Gate Leakage = 0.000356514 W
            Runtime Dynamic = 0.573582 W

          FP Front End RAT:
            Area = 0.673946 mm^2
            Peak Dynamic = 8.35677 W
            Subthreshold Leakage = 0.00967319 W
            Subthreshold Leakage with power gating = 0.00551372 W
            Gate Leakage = 0.00458958 W
            Runtime Dynamic = 0.281293 W

          Free List:
            Area = 0.166478 mm^2
            Peak Dynamic = 0.0918468 W
            Subthreshold Leakage = 0.000146453 W
            Subthreshold Leakage with power gating = 8.84736e-05 W
            Gate Leakage = 3.86939e-05 W
            Runtime Dynamic = 0.0563678 W

      Load Store Unit:
        Area = 31.0201 mm^2
        Peak Dynamic = 11.4905 W
        Subthreshold Leakage = 0.134463 W
        Subthreshold Leakage with power gating = 0.0695374 W
        Gate Leakage = 0.0350882 W
        Runtime Dynamic = 4.9739 W

          Data Cache:
            Area = 23.8879 mm^2
            Peak Dynamic = 10.4238 W
            Subthreshold Leakage = 0.12041 W
            Subthreshold Leakage with power gating = 0.0620482 W
            Gate Leakage = 0.0283949 W
            Runtime Dynamic = 3.61123 W

          LoadQ:
            Area = 0.336377 mm^2
            Peak Dynamic = 0.227649 W
            Subthreshold Leakage = 0.00207484 W
            Subthreshold Leakage with power gating = 0.00118266 W
            Gate Leakage = 0.000557836 W
            Runtime Dynamic = 0.227649 W

          StoreQ:
            Area = 1.29385 mm^2
            Peak Dynamic = 0.567513 W
            Subthreshold Leakage = 0.0076355 W
            Subthreshold Leakage with power gating = 0.00435224 W
            Gate Leakage = 0.00308913 W
            Runtime Dynamic = 1.13502 W

      Memory Management Unit:
        Area = 1.74319 mm^2
        Peak Dynamic = 1.67288 W
        Subthreshold Leakage = 0.0168886 W
        Subthreshold Leakage with power gating = 0.00910531 W
        Gate Leakage = 0.00754991 W
        Runtime Dynamic = 0.336689 W

          Itlb:
            Area = 1.21019 mm^2
            Peak Dynamic = 0.988875 W
            Subthreshold Leakage = 0.00914438 W
            Subthreshold Leakage with power gating = 0.0052123 W
            Gate Leakage = 0.00368346 W
            Runtime Dynamic = 0.149069 W

          Dtlb:
            Area = 0.352783 mm^2
            Peak Dynamic = 0.186124 W
            Subthreshold Leakage = 0.0034011 W
            Subthreshold Leakage with power gating = 0.00193863 W
            Gate Leakage = 0.000820167 W
            Runtime Dynamic = 0.187619 W

      Execution Unit:
        Area = 33.5042 mm^2
        Peak Dynamic = 40.3876 W
        Subthreshold Leakage = 0.632093 W
        Subthreshold Leakage with power gating = 0.287464 W
        Gate Leakage = 0.181772 W
        Runtime Dynamic = 16.9938 W

          Register Files:
            Area = 2.33649 mm^2
            Peak Dynamic = 0.405999 W
            Subthreshold Leakage = 0.00223782 W
            Subthreshold Leakage with power gating = 0.00107613 W
            Gate Leakage = 0.000581954 W
            Runtime Dynamic = 0.340374 W

              Integer RF:
                Area = 1.45379 mm^2
                Peak Dynamic = 0.327652 W
                Subthreshold Leakage = 0.0013575 W
                Subthreshold Leakage with power gating = 0.000634956 W
                Gate Leakage = 0.000364703 W
                Runtime Dynamic = 0.300192 W

              Floating Point RF:
                Area = 0.882698 mm^2
                Peak Dynamic = 0.0783471 W
                Subthreshold Leakage = 0.000880313 W
                Subthreshold Leakage with power gating = 0.000441179 W
                Gate Leakage = 0.000217251 W
                Runtime Dynamic = 0.040182 W

          Instruction Scheduler:
            Area = 10.7146 mm^2
            Peak Dynamic = 37.7065 W
            Subthreshold Leakage = 0.0418257 W
            Subthreshold Leakage with power gating = 0.0217749 W
            Gate Leakage = 0.0154611 W
            Runtime Dynamic = 12.5694 W

              Instruction Window:
                Area = 4.06074 mm^2
                Peak Dynamic = 5.17351 W
                Subthreshold Leakage = 0.0177249 W
                Subthreshold Leakage with power gating = 0.0100936 W
                Gate Leakage = 0.00495309 W
                Runtime Dynamic = 1.96294 W

              FP Instruction Window:
                Area = 1.31653 mm^2
                Peak Dynamic = 3.03616 W
                Subthreshold Leakage = 0.00376639 W
                Subthreshold Leakage with power gating = 0.00213725 W
                Gate Leakage = 0.00107917 W
                Runtime Dynamic = 1.14387 W

              ROB:
                Area = 5.33732 mm^2
                Peak Dynamic = 29.4968 W
                Subthreshold Leakage = 0.0203344 W
                Subthreshold Leakage with power gating = 0.00954406 W
                Gate Leakage = 0.00942888 W
                Runtime Dynamic = 9.46262 W

          Integer ALUs (Count: 6 ):
            Area = 0.96096 mm^2
            Peak Dynamic = 0.840376 W
            Subthreshold Leakage = 0.0885206 W
            Subthreshold Leakage with power gating = 0.0398343 W
            Gate Leakage = 0.0246721 W
            Runtime Dynamic = 0.906605 W

          Floating Point Units (FPUs) (Count: 2 ):
            Area = 18.634 mm^2
            Peak Dynamic = 0.324455 W
            Subthreshold Leakage = 0.429126 W
            Subthreshold Leakage with power gating = 0.193107 W
            Gate Leakage = 0.119605 W
            Runtime Dynamic = 0.459948 W

          Complex ALUs (Mul/Div) (Count: 1 ):
            Area = 0.48048 mm^2
            Peak Dynamic = 0.0633671 W
            Subthreshold Leakage = 0.0442603 W
            Subthreshold Leakage with power gating = 0.0199171 W
            Gate Leakage = 0.0123361 W
            Runtime Dynamic = 0.261146 W

          Results Broadcast Bus:
            Area Overhead = 0.197443 mm^2
            Peak Dynamic = 0.915032 W
            Subthreshold Leakage = 0.0217785 W
            Subthreshold Leakage with power gating = 0.00980034 W
            Gate Leakage = 0.00607003 W
            Runtime Dynamic = 2.45629 W

*****************************************************************************************
Core:
      Area = 111.848 mm^2
      Peak Dynamic = 91.374 W
      Subthreshold Leakage = 1.4683 W
      Subthreshold Leakage with power gating = 0.68985 W
      Gate Leakage = 0.428579 W
      Runtime Dynamic = 32.094 W

      Instruction Fetch Unit:
        Area = 35.1262 mm^2
        Peak Dynamic = 23.7517 W
        Subthreshold Leakage = 0.256071 W
        Subthreshold Leakage with power gating = 0.129447 W
        Gate Leakage = 0.0809514 W
        Runtime Dynamic = 2.9935 W

          Instruction Cache:
            Area = 12.7837 mm^2
            Peak Dynamic = 16.475 W
            Subthreshold Leakage = 0.0845276 W
            Subthreshold Leakage with power gating = 0.0444769 W
            Gate Leakage = 0.0302009 W
            Runtime Dynamic = 1.23347 W

          Branch Target Buffer:
            Area = 13.9086 mm^2
            Peak Dynamic = 1.84942 W
            Subthreshold Leakage = 0.0647654 W
            Subthreshold Leakage with power gating = 0.0363138 W
            Gate Leakage = 0.0260099 W
            Runtime Dynamic = 0.237222 W

          Branch Predictor:
            Area = 0.694038 mm^2
            Peak Dynamic = 0.186182 W
            Subthreshold Leakage = 0.00462789 W
            Subthreshold Leakage with power gating = 0.00265931 W
            Gate Leakage = 0.000938984 W
            Runtime Dynamic = 0.0278157 W

              Global Predictor:
                Area = 0.240428 mm^2
                Peak Dynamic = 0.0626266 W
                Subthreshold Leakage = 0.00179307 W
                Subthreshold Leakage with power gating = 0.00102418 W
                Gate Leakage = 0.000376246 W
                Runtime Dynamic = 0.00889277 W

              Local Predictor:
              L1_Local Predictor:
                Area = 0.106865 mm^2
                Peak Dynamic = 0.032758 W
                Subthreshold Leakage = 0.000838092 W
                Subthreshold Leakage with power gating = 0.000489704 W
                Gate Leakage = 0.000143285 W
                Runtime Dynamic = 0.0047572 W

              L2_Local Predictor:
                Area = 0.0622213 mm^2
                Peak Dynamic = 0.0120857 W
                Subthreshold Leakage = 0.000398338 W
                Subthreshold Leakage with power gating = 0.000236419 W
                Gate Leakage = 7.80127e-05 W
                Runtime Dynamic = 0.00183224 W

              Chooser:
                Area = 0.240428 mm^2
                Peak Dynamic = 0.0626266 W
                Subthreshold Leakage = 0.00179307 W
                Subthreshold Leakage with power gating = 0.00102418 W
                Gate Leakage = 0.000376246 W
                Runtime Dynamic = 0.00889277 W

              RAS:
                Area = 0.0440946 mm^2
                Peak Dynamic = 0.0281704 W
                Subthreshold Leakage = 0.000203652 W
                Subthreshold Leakage with power gating = 0.000121237 W
                Gate Leakage = 4.32081e-05 W
                Runtime Dynamic = 0.00527296 W

          Instruction Buffer:
            Area = 0.101747 mm^2
            Peak Dynamic = 1.47822 W
            Subthreshold Leakage = 0.000332238 W
            Subthreshold Leakage with power gating = 0.000178818 W
            Gate Leakage = 6.33684e-05 W
            Runtime Dynamic = 0.366102 W

          Instruction Decoder:
            Area = 7.45796 mm^2
            Peak Dynamic = 3.03875 W
            Subthreshold Leakage = 0.0974743 W
            Subthreshold Leakage with power gating = 0.0438634 W
            Gate Leakage = 0.0206919 W
            Runtime Dynamic = 1.12888 W

      Renaming Unit:
        Area = 1.48092 mm^2
        Peak Dynamic = 11.2522 W
        Subthreshold Leakage = 0.0155062 W
        Subthreshold Leakage with power gating = 0.00832237 W
        Gate Leakage = 0.00803106 W
        Runtime Dynamic = 1.0051 W

          Int Front End RAT:
            Area = 0.460284 mm^2
            Peak Dynamic = 2.07947 W
            Subthreshold Leakage = 0.00134351 W
            Subthreshold Leakage with power gating = 0.000765799 W
            Gate Leakage = 0.000356514 W
            Runtime Dynamic = 0.74868 W

          FP Front End RAT:
            Area = 0.673946 mm^2
            Peak Dynamic = 8.35677 W
            Subthreshold Leakage = 0.00967319 W
            Subthreshold Leakage with power gating = 0.00551372 W
            Gate Leakage = 0.00458958 W
            Runtime Dynamic = 0.186133 W

          Free List:
            Area = 0.166478 mm^2
            Peak Dynamic = 0.0918468 W
            Subthreshold Leakage = 0.000146453 W
            Subthreshold Leakage with power gating = 8.84736e-05 W
            Gate Leakage = 3.86939e-05 W
            Runtime Dynamic = 0.0702872 W

      Load Store Unit:
        Area = 31.0201 mm^2
        Peak Dynamic = 13.8132 W
        Subthreshold Leakage = 0.134463 W
        Subthreshold Leakage with power gating = 0.0695374 W
        Gate Leakage = 0.0350882 W
        Runtime Dynamic = 6.30227 W

          Data Cache:
            Area = 23.8879 mm^2
            Peak Dynamic = 12.4505 W
            Subthreshold Leakage = 0.12041 W
            Subthreshold Leakage with power gating = 0.0620482 W
            Gate Leakage = 0.0283949 W
            Runtime Dynamic = 4.56155 W

          LoadQ:
            Area = 0.336377 mm^2
            Peak Dynamic = 0.290806 W
            Subthreshold Leakage = 0.00207484 W
            Subthreshold Leakage with power gating = 0.00118266 W
            Gate Leakage = 0.000557836 W
            Runtime Dynamic = 0.290806 W

          StoreQ:
            Area = 1.29385 mm^2
            Peak Dynamic = 0.724959 W
            Subthreshold Leakage = 0.0076355 W
            Subthreshold Leakage with power gating = 0.00435224 W
            Gate Leakage = 0.00308913 W
            Runtime Dynamic = 1.44992 W

      Memory Management Unit:
        Area = 1.74319 mm^2
        Peak Dynamic = 1.76219 W
        Subthreshold Leakage = 0.0168886 W
        Subthreshold Leakage with power gating = 0.00910531 W
        Gate Leakage = 0.00754991 W
        Runtime Dynamic = 0.407512 W

          Itlb:
            Area = 1.21019 mm^2
            Peak Dynamic = 0.988875 W
            Subthreshold Leakage = 0.00914438 W
            Subthreshold Leakage with power gating = 0.0052123 W
            Gate Leakage = 0.00368346 W
            Runtime Dynamic = 0.168225 W

          Dtlb:
            Area = 0.352783 mm^2
            Peak Dynamic = 0.23776 W
            Subthreshold Leakage = 0.0034011 W
            Subthreshold Leakage with power gating = 0.00193863 W
            Gate Leakage = 0.000820167 W
            Runtime Dynamic = 0.239288 W

      Execution Unit:
        Area = 33.5042 mm^2
        Peak Dynamic = 40.7946 W
        Subthreshold Leakage = 0.632093 W
        Subthreshold Leakage with power gating = 0.287464 W
        Gate Leakage = 0.181772 W
        Runtime Dynamic = 21.3856 W

          Register Files:
            Area = 2.33649 mm^2
            Peak Dynamic = 0.450365 W
            Subthreshold Leakage = 0.00223782 W
            Subthreshold Leakage with power gating = 0.00107613 W
            Gate Leakage = 0.000581954 W
            Runtime Dynamic = 0.435985 W

              Integer RF:
                Area = 1.45379 mm^2
                Peak Dynamic = 0.398522 W
                Subthreshold Leakage = 0.0013575 W
                Subthreshold Leakage with power gating = 0.000634956 W
                Gate Leakage = 0.000364703 W
                Runtime Dynamic = 0.384516 W

              Floating Point RF:
                Area = 0.882698 mm^2
                Peak Dynamic = 0.0518431 W
                Subthreshold Leakage = 0.000880313 W
                Subthreshold Leakage with power gating = 0.000441179 W
                Gate Leakage = 0.000217251 W
                Runtime Dynamic = 0.0514692 W

          Instruction Scheduler:
            Area = 10.7146 mm^2
            Peak Dynamic = 37.7065 W
            Subthreshold Leakage = 0.0418257 W
            Subthreshold Leakage with power gating = 0.0217749 W
            Gate Leakage = 0.0154611 W
            Runtime Dynamic = 15.9495 W

              Instruction Window:
                Area = 4.06074 mm^2
                Peak Dynamic = 5.17351 W
                Subthreshold Leakage = 0.0177249 W
                Subthreshold Leakage with power gating = 0.0100936 W
                Gate Leakage = 0.00495309 W
                Runtime Dynamic = 2.51433 W

              FP Instruction Window:
                Area = 1.31653 mm^2
                Peak Dynamic = 3.03616 W
                Subthreshold Leakage = 0.00376639 W
                Subthreshold Leakage with power gating = 0.00213725 W
                Gate Leakage = 0.00107917 W
                Runtime Dynamic = 1.46518 W

              ROB:
                Area = 5.33732 mm^2
                Peak Dynamic = 29.4968 W
                Subthreshold Leakage = 0.0203344 W
                Subthreshold Leakage with power gating = 0.00954406 W
                Gate Leakage = 0.00942888 W
                Runtime Dynamic = 11.97 W

          Integer ALUs (Count: 6 ):
            Area = 0.96096 mm^2
            Peak Dynamic = 1.1085 W
            Subthreshold Leakage = 0.0885206 W
            Subthreshold Leakage with power gating = 0.0398343 W
            Gate Leakage = 0.0246721 W
            Runtime Dynamic = 1.19327 W

          Floating Point Units (FPUs) (Count: 2 ):
            Area = 18.634 mm^2
            Peak Dynamic = 0.214695 W
            Subthreshold Leakage = 0.429126 W
            Subthreshold Leakage with power gating = 0.193107 W
            Gate Leakage = 0.119605 W
            Runtime Dynamic = 0.408576 W

          Complex ALUs (Mul/Div) (Count: 1 ):
            Area = 0.48048 mm^2
            Peak Dynamic = 0.0418875 W
            Subthreshold Leakage = 0.0442603 W
            Subthreshold Leakage with power gating = 0.0199171 W
            Gate Leakage = 0.0123361 W
            Runtime Dynamic = 0.242249 W

          Results Broadcast Bus:
            Area Overhead = 0.197443 mm^2
            Peak Dynamic = 1.09873 W
            Subthreshold Leakage = 0.0217785 W
            Subthreshold Leakage with power gating = 0.00980034 W
            Gate Leakage = 0.00607003 W
            Runtime Dynamic = 3.15605 W

*****************************************************************************************
Core:
      Area = 111.848 mm^2
      Peak Dynamic = 94.2924 W
      Subthreshold Leakage = 1.4683 W
      Subthreshold Leakage with power gating = 0.68985 W
      Gate Leakage = 0.428579 W
      Runtime Dynamic = 40.5742 W

      Instruction Fetch Unit:
        Area = 35.1262 mm^2
        Peak Dynamic = 23.7517 W
        Subthreshold Leakage = 0.256071 W
        Subthreshold Leakage with power gating = 0.129447 W
        Gate Leakage = 0.0809514 W
        Runtime Dynamic = 4.15601 W

          Instruction Cache:
            Area = 12.7837 mm^2
            Peak Dynamic = 16.475 W
            Subthreshold Leakage = 0.0845276 W
            Subthreshold Leakage with power gating = 0.0444769 W
            Gate Leakage = 0.0302009 W
            Runtime Dynamic = 1.67246 W

          Branch Target Buffer:
            Area = 13.9086 mm^2
            Peak Dynamic = 1.84942 W
            Subthreshold Leakage = 0.0647654 W
            Subthreshold Leakage with power gating = 0.0363138 W
            Gate Leakage = 0.0260099 W
            Runtime Dynamic = 0.508799 W

          Branch Predictor:
            Area = 0.694038 mm^2
            Peak Dynamic = 0.186182 W
            Subthreshold Leakage = 0.00462789 W
            Subthreshold Leakage with power gating = 0.00265931 W
            Gate Leakage = 0.000938984 W
            Runtime Dynamic = 0.0546425 W

              Global Predictor:
                Area = 0.240428 mm^2
                Peak Dynamic = 0.0626266 W
                Subthreshold Leakage = 0.00179307 W
                Subthreshold Leakage with power gating = 0.00102418 W
                Gate Leakage = 0.000376246 W
                Runtime Dynamic = 0.018892 W

              Local Predictor:
              L1_Local Predictor:
                Area = 0.106865 mm^2
                Peak Dynamic = 0.032758 W
                Subthreshold Leakage = 0.000838092 W
                Subthreshold Leakage with power gating = 0.000489704 W
                Gate Leakage = 0.000143285 W
                Runtime Dynamic = 0.0100861 W

              L2_Local Predictor:
                Area = 0.0622213 mm^2
                Peak Dynamic = 0.0120857 W
                Subthreshold Leakage = 0.000398338 W
                Subthreshold Leakage with power gating = 0.000236419 W
                Gate Leakage = 7.80127e-05 W
                Runtime Dynamic = 0.0038703 W

              Chooser:
                Area = 0.240428 mm^2
                Peak Dynamic = 0.0626266 W
                Subthreshold Leakage = 0.00179307 W
                Subthreshold Leakage with power gating = 0.00102418 W
                Gate Leakage = 0.000376246 W
                Runtime Dynamic = 0.018892 W

              RAS:
                Area = 0.0440946 mm^2
                Peak Dynamic = 0.0281704 W
                Subthreshold Leakage = 0.000203652 W
                Subthreshold Leakage with power gating = 0.000121237 W
                Gate Leakage = 4.32081e-05 W
                Runtime Dynamic = 0.00677242 W

          Instruction Buffer:
            Area = 0.101747 mm^2
            Peak Dynamic = 1.47822 W
            Subthreshold Leakage = 0.000332238 W
            Subthreshold Leakage with power gating = 0.000178818 W
            Gate Leakage = 6.33684e-05 W
            Runtime Dynamic = 0.470209 W

          Instruction Decoder:
            Area = 7.45796 mm^2
            Peak Dynamic = 3.03875 W
            Subthreshold Leakage = 0.0974743 W
            Subthreshold Leakage with power gating = 0.0438634 W
            Gate Leakage = 0.0206919 W
            Runtime Dynamic = 1.4499 W

      Renaming Unit:
        Area = 1.48092 mm^2
        Peak Dynamic = 11.2522 W
        Subthreshold Leakage = 0.0155062 W
        Subthreshold Leakage with power gating = 0.00832237 W
        Gate Leakage = 0.00803106 W
        Runtime Dynamic = 1.46844 W

          Int Front End RAT:
            Area = 0.460284 mm^2
            Peak Dynamic = 2.07947 W
            Subthreshold Leakage = 0.00134351 W
            Subthreshold Leakage with power gating = 0.000765799 W
            Gate Leakage = 0.000356514 W
            Runtime Dynamic = 0.939853 W

          FP Front End RAT:
            Area = 0.673946 mm^2
            Peak Dynamic = 8.35677 W
            Subthreshold Leakage = 0.00967319 W
            Subthreshold Leakage with power gating = 0.00551372 W
            Gate Leakage = 0.00458958 W
            Runtime Dynamic = 0.436146 W

          Free List:
            Area = 0.166478 mm^2
            Peak Dynamic = 0.0918468 W
            Subthreshold Leakage = 0.000146453 W
            Subthreshold Leakage with power gating = 8.84736e-05 W
            Gate Leakage = 3.86939e-05 W
            Runtime Dynamic = 0.0924406 W

      Load Store Unit:
        Area = 31.0201 mm^2
        Peak Dynamic = 15.4008 W
        Subthreshold Leakage = 0.134463 W
        Subthreshold Leakage with power gating = 0.0695374 W
        Gate Leakage = 0.0350882 W
        Runtime Dynamic = 7.21557 W

          Data Cache:
            Area = 23.8879 mm^2
            Peak Dynamic = 13.8358 W
            Subthreshold Leakage = 0.12041 W
            Subthreshold Leakage with power gating = 0.0620482 W
            Gate Leakage = 0.0283949 W
            Runtime Dynamic = 5.21644 W

          LoadQ:
            Area = 0.336377 mm^2
            Peak Dynamic = 0.333974 W
            Subthreshold Leakage = 0.00207484 W
            Subthreshold Leakage with power gating = 0.00118266 W
            Gate Leakage = 0.000557836 W
            Runtime Dynamic = 0.333974 W

          StoreQ:
            Area = 1.29385 mm^2
            Peak Dynamic = 0.832573 W
            Subthreshold Leakage = 0.0076355 W
            Subthreshold Leakage with power gating = 0.00435224 W
            Gate Leakage = 0.00308913 W
            Runtime Dynamic = 1.66515 W

      Memory Management Unit:
        Area = 1.74319 mm^2
        Peak Dynamic = 1.82323 W
        Subthreshold Leakage = 0.0168886 W
        Subthreshold Leakage with power gating = 0.00910531 W
        Gate Leakage = 0.00754991 W
        Runtime Dynamic = 0.53184 W

          Itlb:
            Area = 1.21019 mm^2
            Peak Dynamic = 0.988875 W
            Subthreshold Leakage = 0.00914438 W
            Subthreshold Leakage with power gating = 0.0052123 W
            Gate Leakage = 0.00368346 W
            Runtime Dynamic = 0.257771 W

          Dtlb:
            Area = 0.352783 mm^2
            Peak Dynamic = 0.273054 W
            Subthreshold Leakage = 0.0034011 W
            Subthreshold Leakage with power gating = 0.00193863 W
            Gate Leakage = 0.000820167 W
            Runtime Dynamic = 0.274069 W

      Execution Unit:
        Area = 33.5042 mm^2
        Peak Dynamic = 42.0644 W
        Subthreshold Leakage = 0.632093 W
        Subthreshold Leakage with power gating = 0.287464 W
        Gate Leakage = 0.181772 W
        Runtime Dynamic = 27.2023 W

          Register Files:
            Area = 2.33649 mm^2
            Peak Dynamic = 0.657273 W
            Subthreshold Leakage = 0.00223782 W
            Subthreshold Leakage with power gating = 0.00107613 W
            Gate Leakage = 0.000581954 W
            Runtime Dynamic = 0.559964 W

              Integer RF:
                Area = 1.45379 mm^2
                Peak Dynamic = 0.535795 W
                Subthreshold Leakage = 0.0013575 W
                Subthreshold Leakage with power gating = 0.000634956 W
                Gate Leakage = 0.000364703 W
                Runtime Dynamic = 0.493859 W

              Floating Point RF:
                Area = 0.882698 mm^2
                Peak Dynamic = 0.121478 W
                Subthreshold Leakage = 0.000880313 W
                Subthreshold Leakage with power gating = 0.000441179 W
                Gate Leakage = 0.000217251 W
                Runtime Dynamic = 0.0661053 W

          Instruction Scheduler:
            Area = 10.7146 mm^2
            Peak Dynamic = 37.7065 W
            Subthreshold Leakage = 0.0418257 W
            Subthreshold Leakage with power gating = 0.0217749 W
            Gate Leakage = 0.0154611 W
            Runtime Dynamic = 20.5071 W

              Instruction Window:
                Area = 4.06074 mm^2
                Peak Dynamic = 5.17351 W
                Subthreshold Leakage = 0.0177249 W
                Subthreshold Leakage with power gating = 0.0100936 W
                Gate Leakage = 0.00495309 W
                Runtime Dynamic = 3.22933 W

              FP Instruction Window:
                Area = 1.31653 mm^2
                Peak Dynamic = 3.03616 W
                Subthreshold Leakage = 0.00376639 W
                Subthreshold Leakage with power gating = 0.00213725 W
                Gate Leakage = 0.00107917 W
                Runtime Dynamic = 1.88183 W

              ROB:
                Area = 5.33732 mm^2
                Peak Dynamic = 29.4968 W
                Subthreshold Leakage = 0.0203344 W
                Subthreshold Leakage with power gating = 0.00954406 W
                Gate Leakage = 0.00942888 W
                Runtime Dynamic = 15.3959 W

          Integer ALUs (Count: 6 ):
            Area = 0.96096 mm^2
            Peak Dynamic = 1.38744 W
            Subthreshold Leakage = 0.0885206 W
            Subthreshold Leakage with power gating = 0.0398343 W
            Gate Leakage = 0.0246721 W
            Runtime Dynamic = 1.38719 W

          Floating Point Units (FPUs) (Count: 2 ):
            Area = 18.634 mm^2
            Peak Dynamic = 0.503072 W
            Subthreshold Leakage = 0.429126 W
            Subthreshold Leakage with power gating = 0.193107 W
            Gate Leakage = 0.119605 W
            Runtime Dynamic = 0.543547 W

          Complex ALUs (Mul/Div) (Count: 1 ):
            Area = 0.48048 mm^2
            Peak Dynamic = 0.0982383 W
            Subthreshold Leakage = 0.0442603 W
            Subthreshold Leakage with power gating = 0.0199171 W
            Gate Leakage = 0.0123361 W
            Runtime Dynamic = 0.291828 W

          Results Broadcast Bus:
            Area Overhead = 0.197443 mm^2
            Peak Dynamic = 1.49414 W
            Subthreshold Leakage = 0.0217785 W
            Subthreshold Leakage with power gating = 0.00980034 W
            Gate Leakage = 0.00607003 W
            Runtime Dynamic = 3.91269 W

*****************************************************************************************
Core:
      Area = 111.848 mm^2
      Peak Dynamic = 97.4136 W
      Subthreshold Leakage = 1.4683 W
      Subthreshold Leakage with power gating = 0.68985 W
      Gate Leakage = 0.428579 W
      Runtime Dynamic = 48.1387 W

      Instruction Fetch Unit:
        Area = 35.1262 mm^2
        Peak Dynamic = 23.7517 W
        Subthreshold Leakage = 0.256071 W
        Subthreshold Leakage with power gating = 0.129447 W
        Gate Leakage = 0.0809514 W
        Runtime Dynamic = 4.61603 W

          Instruction Cache:
            Area = 12.7837 mm^2
            Peak Dynamic = 16.475 W
            Subthreshold Leakage = 0.0845276 W
            Subthreshold Leakage with power gating = 0.0444769 W
            Gate Leakage = 0.0302009 W
            Runtime Dynamic = 1.83302 W

          Branch Target Buffer:
            Area = 13.9086 mm^2
            Peak Dynamic = 1.84942 W
            Subthreshold Leakage = 0.0647654 W
            Subthreshold Leakage with power gating = 0.0363138 W
            Gate Leakage = 0.0260099 W
            Runtime Dynamic = 0.455875 W

          Branch Predictor:
            Area = 0.694038 mm^2
            Peak Dynamic = 0.186182 W
            Subthreshold Leakage = 0.00462789 W
            Subthreshold Leakage with power gating = 0.00265931 W
            Gate Leakage = 0.000938984 W
            Runtime Dynamic = 0.0502965 W

              Global Predictor:
                Area = 0.240428 mm^2
                Peak Dynamic = 0.0626266 W
                Subthreshold Leakage = 0.00179307 W
                Subthreshold Leakage with power gating = 0.00102418 W
                Gate Leakage = 0.000376246 W
                Runtime Dynamic = 0.0166907 W

              Local Predictor:
              L1_Local Predictor:
                Area = 0.106865 mm^2
                Peak Dynamic = 0.032758 W
                Subthreshold Leakage = 0.000838092 W
                Subthreshold Leakage with power gating = 0.000489704 W
                Gate Leakage = 0.000143285 W
                Runtime Dynamic = 0.00888446 W

              L2_Local Predictor:
                Area = 0.0622213 mm^2
                Peak Dynamic = 0.0120857 W
                Subthreshold Leakage = 0.000398338 W
                Subthreshold Leakage with power gating = 0.000236419 W
                Gate Leakage = 7.80127e-05 W
                Runtime Dynamic = 0.00339026 W

              Chooser:
                Area = 0.240428 mm^2
                Peak Dynamic = 0.0626266 W
                Subthreshold Leakage = 0.00179307 W
                Subthreshold Leakage with power gating = 0.00102418 W
                Gate Leakage = 0.000376246 W
                Runtime Dynamic = 0.0166907 W

              RAS:
                Area = 0.0440946 mm^2
                Peak Dynamic = 0.0281704 W
                Subthreshold Leakage = 0.000203652 W
                Subthreshold Leakage with power gating = 0.000121237 W
                Gate Leakage = 4.32081e-05 W
                Runtime Dynamic = 0.00803063 W

          Instruction Buffer:
            Area = 0.101747 mm^2
            Peak Dynamic = 1.47822 W
            Subthreshold Leakage = 0.000332238 W
            Subthreshold Leakage with power gating = 0.000178818 W
            Gate Leakage = 6.33684e-05 W
            Runtime Dynamic = 0.557567 W

          Instruction Decoder:
            Area = 7.45796 mm^2
            Peak Dynamic = 3.03875 W
            Subthreshold Leakage = 0.0974743 W
            Subthreshold Leakage with power gating = 0.0438634 W
            Gate Leakage = 0.0206919 W
            Runtime Dynamic = 1.71927 W

      Renaming Unit:
        Area = 1.48092 mm^2
        Peak Dynamic = 11.2522 W
        Subthreshold Leakage = 0.0155062 W
        Subthreshold Leakage with power gating = 0.00832237 W
        Gate Leakage = 0.00803106 W
        Runtime Dynamic = 1.91502 W

          Int Front End RAT:
            Area = 0.460284 mm^2
            Peak Dynamic = 2.07947 W
            Subthreshold Leakage = 0.00134351 W
            Subthreshold Leakage with power gating = 0.000765799 W
            Gate Leakage = 0.000356514 W
            Runtime Dynamic = 1.11996 W

          FP Front End RAT:
            Area = 0.673946 mm^2
            Peak Dynamic = 8.35677 W
            Subthreshold Leakage = 0.00967319 W
            Subthreshold Leakage with power gating = 0.00551372 W
            Gate Leakage = 0.00458958 W
            Runtime Dynamic = 0.683613 W

          Free List:
            Area = 0.166478 mm^2
            Peak Dynamic = 0.0918468 W
            Subthreshold Leakage = 0.000146453 W
            Subthreshold Leakage with power gating = 8.84736e-05 W
            Gate Leakage = 3.86939e-05 W
            Runtime Dynamic = 0.111444 W

      Load Store Unit:
        Area = 31.0201 mm^2
        Peak Dynamic = 17.3061 W
        Subthreshold Leakage = 0.134463 W
        Subthreshold Leakage with power gating = 0.0695374 W
        Gate Leakage = 0.0350882 W
        Runtime Dynamic = 8.35596 W

          Data Cache:
            Area = 23.8879 mm^2
            Peak Dynamic = 15.4983 W
            Subthreshold Leakage = 0.12041 W
            Subthreshold Leakage with power gating = 0.0620482 W
            Gate Leakage = 0.0283949 W
            Runtime Dynamic = 6.04674 W

          LoadQ:
            Area = 0.336377 mm^2
            Peak Dynamic = 0.385779 W
            Subthreshold Leakage = 0.00207484 W
            Subthreshold Leakage with power gating = 0.00118266 W
            Gate Leakage = 0.000557836 W
            Runtime Dynamic = 0.385779 W

          StoreQ:
            Area = 1.29385 mm^2
            Peak Dynamic = 0.96172 W
            Subthreshold Leakage = 0.0076355 W
            Subthreshold Leakage with power gating = 0.00435224 W
            Gate Leakage = 0.00308913 W
            Runtime Dynamic = 1.92344 W

      Memory Management Unit:
        Area = 1.74319 mm^2
        Peak Dynamic = 1.89649 W
        Subthreshold Leakage = 0.0168886 W
        Subthreshold Leakage with power gating = 0.00910531 W
        Gate Leakage = 0.00754991 W
        Runtime Dynamic = 0.593303 W

          Itlb:
            Area = 1.21019 mm^2
            Peak Dynamic = 0.988875 W
            Subthreshold Leakage = 0.00914438 W
            Subthreshold Leakage with power gating = 0.0052123 W
            Gate Leakage = 0.00368346 W
            Runtime Dynamic = 0.276023 W

          Dtlb:
            Area = 0.352783 mm^2
            Peak Dynamic = 0.315409 W
            Subthreshold Leakage = 0.0034011 W
            Subthreshold Leakage with power gating = 0.00193863 W
            Gate Leakage = 0.000820167 W
            Runtime Dynamic = 0.31728 W

      Execution Unit:
        Area = 33.5042 mm^2
        Peak Dynamic = 43.2071 W
        Subthreshold Leakage = 0.632093 W
        Subthreshold Leakage with power gating = 0.287464 W
        Gate Leakage = 0.181772 W
        Runtime Dynamic = 32.6584 W

          Register Files:
            Area = 2.33649 mm^2
            Peak Dynamic = 0.846395 W
            Subthreshold Leakage = 0.00223782 W
            Subthreshold Leakage with power gating = 0.00107613 W
            Gate Leakage = 0.000581954 W
            Runtime Dynamic = 0.663997 W

              Integer RF:
                Area = 1.45379 mm^2
                Peak Dynamic = 0.655992 W
                Subthreshold Leakage = 0.0013575 W
                Subthreshold Leakage with power gating = 0.000634956 W
                Gate Leakage = 0.000364703 W
                Runtime Dynamic = 0.585611 W

              Floating Point RF:
                Area = 0.882698 mm^2
                Peak Dynamic = 0.190403 W
                Subthreshold Leakage = 0.000880313 W
                Subthreshold Leakage with power gating = 0.000441179 W
                Gate Leakage = 0.000217251 W
                Runtime Dynamic = 0.0783866 W

          Instruction Scheduler:
            Area = 10.7146 mm^2
            Peak Dynamic = 37.7065 W
            Subthreshold Leakage = 0.0418257 W
            Subthreshold Leakage with power gating = 0.0217749 W
            Gate Leakage = 0.0154611 W
            Runtime Dynamic = 24.4116 W

              Instruction Window:
                Area = 4.06074 mm^2
                Peak Dynamic = 5.17351 W
                Subthreshold Leakage = 0.0177249 W
                Subthreshold Leakage with power gating = 0.0100936 W
                Gate Leakage = 0.00495309 W
                Runtime Dynamic = 3.82929 W

              FP Instruction Window:
                Area = 1.31653 mm^2
                Peak Dynamic = 3.03616 W
                Subthreshold Leakage = 0.00376639 W
                Subthreshold Leakage with power gating = 0.00213725 W
                Gate Leakage = 0.00107917 W
                Runtime Dynamic = 2.23145 W

              ROB:
                Area = 5.33732 mm^2
                Peak Dynamic = 29.4968 W
                Subthreshold Leakage = 0.0203344 W
                Subthreshold Leakage with power gating = 0.00954406 W
                Gate Leakage = 0.00942888 W
                Runtime Dynamic = 18.3508 W

          Integer ALUs (Count: 6 ):
            Area = 0.96096 mm^2
            Peak Dynamic = 1.61458 W
            Subthreshold Leakage = 0.0885206 W
            Subthreshold Leakage with power gating = 0.0398343 W
            Gate Leakage = 0.0246721 W
            Runtime Dynamic = 1.66547 W

          Floating Point Units (FPUs) (Count: 2 ):
            Area = 18.634 mm^2
            Peak Dynamic = 0.788508 W
            Subthreshold Leakage = 0.429126 W
            Subthreshold Leakage with power gating = 0.193107 W
            Gate Leakage = 0.119605 W
            Runtime Dynamic = 0.677142 W

          Complex ALUs (Mul/Div) (Count: 1 ):
            Area = 0.48048 mm^2
            Peak Dynamic = 0.154552 W
            Subthreshold Leakage = 0.0442603 W
            Subthreshold Leakage with power gating = 0.0199171 W
            Gate Leakage = 0.0123361 W
            Runtime Dynamic = 0.341374 W

          Results Broadcast Bus:
            Area Overhead = 0.197443 mm^2
            Peak Dynamic = 1.84318 W
            Subthreshold Leakage = 0.0217785 W
            Subthreshold Leakage with power gating = 0.00980034 W
            Gate Leakage = 0.00607003 W
            Runtime Dynamic = 4.89889 W

*****************************************************************************************
L2
      Area = 379.836 mm^2
      Peak Dynamic = 1.54534 W
      Subthreshold Leakage = 3.15708 W
      Subthreshold Leakage with power gating = 1.67215 W
      Gate Leakage = 0.133698 W
      Runtime Dynamic = 1.04196 W

*****************************************************************************************
BUSES
      Area = 10.8685 mm^2
      Peak Dynamic = 0 W
      Subthreshold Leakage = 0.0246199 W
      Subthreshold Leakage with power gating = 0.011079 W
      Gate Leakage = 0.00686197 W
      Runtime Dynamic = 0 W

      Bus: 
        Area = 10.8685 mm^2
        Peak Dynamic = 0 W
        Subthreshold Leakage = 0.0246199 W
        Subthreshold Leakage with power gating = 0.011079 W
        Gate Leakage = 0.00686197 W
        Runtime Dynamic = 0 W

*****************************************************************************************
