McPAT (version 1.0 of Aug, 2013) is computing the target processor...
 
Warning: icache array structure cannot satisfy latency constraint.
Warning: Branch Target Buffer array structure cannot satisfy latency constraint.
Warning: ReorderBuffer array structure cannot satisfy latency constraint.
Warning: icache array structure cannot satisfy latency constraint.
Warning: Branch Target Buffer array structure cannot satisfy latency constraint.
Warning: ReorderBuffer array structure cannot satisfy latency constraint.
Warning: icache array structure cannot satisfy latency constraint.
Warning: Branch Target Buffer array structure cannot satisfy latency constraint.
Warning: ReorderBuffer array structure cannot satisfy latency constraint.
Warning: icache array structure cannot satisfy latency constraint.
Warning: Branch Target Buffer array structure cannot satisfy latency constraint.
Warning: ReorderBuffer array structure cannot satisfy latency constraint.
Warning: L2cache array structure cannot satisfy latency constraint.

McPAT (version 1.0 of Aug, 2013) results  (current print level is 5)
*****************************************************************************************
  Technology 65 nm
  Using Long Channel Devices When Appropriate
  Interconnect metal projection= aggressive interconnect technology projection
  Core clock Rate(MHz) 2660

*****************************************************************************************
Processor: 
  Area = 257.967 mm^2
  Peak Power = 244.536 W
  Total Leakage = 20.7317 W
  Peak Dynamic = 223.804 W
  Subthreshold Leakage = 17.7849 W
  Subthreshold Leakage with power gating = 7.84611 W
  Gate Leakage = 2.94686 W
  Runtime Dynamic = 66.0838 W

  Total Cores: 4 cores 
  Device Type= ITRS high performance device type
    Area = 213.475 mm^2
    Peak Dynamic = 223.303 W
    Subthreshold Leakage = 16.645 W
    Subthreshold Leakage with power gating = 7.31305 W
    Gate Leakage = 2.84573 W
    Runtime Dynamic = 65.8479 W

  Total L2s: 
  Device Type= ITRS high performance device type
    Area = 42.2475 mm^2
    Peak Dynamic = 0.500877 W
    Subthreshold Leakage = 1.0962 W
    Subthreshold Leakage with power gating = 0.498137 W
    Gate Leakage = 0.0907798 W
    Runtime Dynamic = 0.235933 W

  Total NoCs (Network/Bus): 
  Device Type= ITRS high performance device type
    Area = 2.24393 mm^2
    Peak Dynamic = 0 W
    Subthreshold Leakage = 0.0436402 W
    Subthreshold Leakage with power gating = 0.0180016 W
    Gate Leakage = 0.0103493 W
    Runtime Dynamic = 0 W

*****************************************************************************************
Core:
      Area = 53.3689 mm^2
      Peak Dynamic = 52.761 W
      Subthreshold Leakage = 4.16126 W
      Subthreshold Leakage with power gating = 1.82826 W
      Gate Leakage = 0.711432 W
      Runtime Dynamic = 11.9151 W

      Instruction Fetch Unit:
        Area = 16.6791 mm^2
        Peak Dynamic = 13.4111 W
        Subthreshold Leakage = 0.831766 W
        Subthreshold Leakage with power gating = 0.38846 W
        Gate Leakage = 0.155048 W
        Runtime Dynamic = 1.08525 W

          Instruction Cache:
            Area = 6.75661 mm^2
            Peak Dynamic = 9.16079 W
            Subthreshold Leakage = 0.297311 W
            Subthreshold Leakage with power gating = 0.150398 W
            Gate Leakage = 0.0613922 W
            Runtime Dynamic = 0.460055 W

          Branch Target Buffer:
            Area = 5.61054 mm^2
            Peak Dynamic = 1.24445 W
            Subthreshold Leakage = 0.206554 W
            Subthreshold Leakage with power gating = 0.100841 W
            Gate Leakage = 0.050165 W
            Runtime Dynamic = 0.134105 W

          Branch Predictor:
            Area = 0.290038 mm^2
            Peak Dynamic = 0.0860761 W
            Subthreshold Leakage = 0.0138691 W
            Subthreshold Leakage with power gating = 0.00759211 W
            Gate Leakage = 0.0013017 W
            Runtime Dynamic = 0.00988557 W

              Global Predictor:
                Area = 0.0923009 mm^2
                Peak Dynamic = 0.0240659 W
                Subthreshold Leakage = 0.00527373 W
                Subthreshold Leakage with power gating = 0.00288394 W
                Gate Leakage = 0.000476013 W
                Runtime Dynamic = 0.00277753 W

              Local Predictor:
              L1_Local Predictor:
                Area = 0.0548037 mm^2
                Peak Dynamic = 0.0203863 W
                Subthreshold Leakage = 0.00267663 W
                Subthreshold Leakage with power gating = 0.00146319 W
                Gate Leakage = 0.000269239 W
                Runtime Dynamic = 0.00241083 W

              L2_Local Predictor:
                Area = 0.0280973 mm^2
                Peak Dynamic = 0.0103889 W
                Subthreshold Leakage = 0.00135709 W
                Subthreshold Leakage with power gating = 0.00073939 W
                Gate Leakage = 0.000141843 W
                Runtime Dynamic = 0.00122864 W

              Chooser:
                Area = 0.0923009 mm^2
                Peak Dynamic = 0.0240659 W
                Subthreshold Leakage = 0.00527373 W
                Subthreshold Leakage with power gating = 0.00288394 W
                Gate Leakage = 0.000476013 W
                Runtime Dynamic = 0.00277753 W

              RAS:
                Area = 0.022535 mm^2
                Peak Dynamic = 0.017558 W
                Subthreshold Leakage = 0.000645049 W
                Subthreshold Leakage with power gating = 0.000361038 W
                Gate Leakage = 8.04384e-05 W
                Runtime Dynamic = 0.00191969 W

          Instruction Buffer:
            Area = 0.0513995 mm^2
            Peak Dynamic = 0.946774 W
            Subthreshold Leakage = 0.00108634 W
            Subthreshold Leakage with power gating = 0.000538263 W
            Gate Leakage = 0.000121689 W
            Runtime Dynamic = 0.134185 W

          Instruction Decoder:
            Area = 3.87654 mm^2
            Peak Dynamic = 1.6323 W
            Subthreshold Leakage = 0.299448 W
            Subthreshold Leakage with power gating = 0.123523 W
            Gate Leakage = 0.0366139 W
            Runtime Dynamic = 0.347017 W

      Renaming Unit:
        Area = 0.773725 mm^2
        Peak Dynamic = 7.14742 W
        Subthreshold Leakage = 0.0529538 W
        Subthreshold Leakage with power gating = 0.0280629 W
        Gate Leakage = 0.0156786 W
        Runtime Dynamic = 0.412652 W

          Int Front End RAT:
            Area = 0.241418 mm^2
            Peak Dynamic = 1.25896 W
            Subthreshold Leakage = 0.00453825 W
            Subthreshold Leakage with power gating = 0.0025868 W
            Gate Leakage = 0.000695293 W
            Runtime Dynamic = 0.254231 W

          FP Front End RAT:
            Area = 0.351534 mm^2
            Peak Dynamic = 5.42872 W
            Subthreshold Leakage = 0.0344542 W
            Subthreshold Leakage with power gating = 0.0196389 W
            Gate Leakage = 0.00945921 W
            Runtime Dynamic = 0.131885 W

          Free List:
            Area = 0.0867714 mm^2
            Peak Dynamic = 0.0590361 W
            Subthreshold Leakage = 0.000463845 W
            Subthreshold Leakage with power gating = 0.000269451 W
            Gate Leakage = 7.05318e-05 W
            Runtime Dynamic = 0.0265356 W

      Load Store Unit:
        Area = 10.888 mm^2
        Peak Dynamic = 5.42731 W
        Subthreshold Leakage = 0.310052 W
        Subthreshold Leakage with power gating = 0.167489 W
        Gate Leakage = 0.0478226 W
        Runtime Dynamic = 1.76475 W

          Data Cache:
            Area = 8.0728 mm^2
            Peak Dynamic = 4.93556 W
            Subthreshold Leakage = 0.262501 W
            Subthreshold Leakage with power gating = 0.142511 W
            Gate Leakage = 0.0349272 W
            Runtime Dynamic = 1.10993 W

          LoadQ:
            Area = 0.178621 mm^2
            Peak Dynamic = 0.1084 W
            Subthreshold Leakage = 0.00713781 W
            Subthreshold Leakage with power gating = 0.00406855 W
            Gate Leakage = 0.00110995 W
            Runtime Dynamic = 0.1084 W

          StoreQ:
            Area = 0.685501 mm^2
            Peak Dynamic = 0.273214 W
            Subthreshold Leakage = 0.0269154 W
            Subthreshold Leakage with power gating = 0.0153418 W
            Gate Leakage = 0.00633191 W
            Runtime Dynamic = 0.546428 W

      Memory Management Unit:
        Area = 0.922128 mm^2
        Peak Dynamic = 0.888625 W
        Subthreshold Leakage = 0.0569545 W
        Subthreshold Leakage with power gating = 0.0303382 W
        Gate Leakage = 0.0145682 W
        Runtime Dynamic = 0.15783 W

          Itlb:
            Area = 0.639014 mm^2
            Peak Dynamic = 0.546952 W
            Subthreshold Leakage = 0.0323609 W
            Subthreshold Leakage with power gating = 0.0184457 W
            Gate Leakage = 0.00756163 W
            Runtime Dynamic = 0.0707988 W

          Dtlb:
            Area = 0.189112 mm^2
            Peak Dynamic = 0.0862559 W
            Subthreshold Leakage = 0.0110961 W
            Subthreshold Leakage with power gating = 0.00632475 W
            Gate Leakage = 0.00155302 W
            Runtime Dynamic = 0.0870317 W

      Execution Unit:
        Area = 17.8249 mm^2
        Peak Dynamic = 25.8865 W
        Subthreshold Leakage = 1.64003 W
        Subthreshold Leakage with power gating = 0.690244 W
        Gate Leakage = 0.274494 W
        Runtime Dynamic = 8.49459 W

          Register Files:
            Area = 1.24273 mm^2
            Peak Dynamic = 0.194478 W
            Subthreshold Leakage = 0.00783917 W
            Subthreshold Leakage with power gating = 0.00348781 W
            Gate Leakage = 0.00118474 W
            Runtime Dynamic = 0.163863 W

              Integer RF:
                Area = 0.773151 mm^2
                Peak Dynamic = 0.157661 W
                Subthreshold Leakage = 0.00479902 W
                Subthreshold Leakage with power gating = 0.00207228 W
                Gate Leakage = 0.000746865 W
                Runtime Dynamic = 0.144686 W

              Floating Point RF:
                Area = 0.469582 mm^2
                Peak Dynamic = 0.0368172 W
                Subthreshold Leakage = 0.00304015 W
                Subthreshold Leakage with power gating = 0.00141553 W
                Gate Leakage = 0.000437878 W
                Runtime Dynamic = 0.0191775 W

          Instruction Scheduler:
            Area = 5.63983 mm^2
            Peak Dynamic = 24.5471 W
            Subthreshold Leakage = 0.149298 W
            Subthreshold Leakage with power gating = 0.0750616 W
            Gate Leakage = 0.0319423 W
            Runtime Dynamic = 6.00253 W

              Instruction Window:
                Area = 2.15891 mm^2
                Peak Dynamic = 3.3662 W
                Subthreshold Leakage = 0.063785 W
                Subthreshold Leakage with power gating = 0.0363184 W
                Gate Leakage = 0.0102635 W
                Runtime Dynamic = 0.937018 W

              FP Instruction Window:
                Area = 0.694993 mm^2
                Peak Dynamic = 1.97613 W
                Subthreshold Leakage = 0.0135308 W
                Subthreshold Leakage with power gating = 0.00767348 W
                Gate Leakage = 0.002225 W
                Runtime Dynamic = 0.546501 W

              ROB:
                Area = 2.78593 mm^2
                Peak Dynamic = 19.2048 W
                Subthreshold Leakage = 0.0719825 W
                Subthreshold Leakage with power gating = 0.0310698 W
                Gate Leakage = 0.0194538 W
                Runtime Dynamic = 4.51901 W

          Integer ALUs (Count: 6 ):
            Area = 0.672672 mm^2
            Peak Dynamic = 0.442122 W
            Subthreshold Leakage = 0.271918 W
            Subthreshold Leakage with power gating = 0.112166 W
            Gate Leakage = 0.0436568 W
            Runtime Dynamic = 0.520668 W

          Floating Point Units (FPUs) (Count: 2 ):
            Area = 9.71959 mm^2
            Peak Dynamic = 0.170579 W
            Subthreshold Leakage = 0.982251 W
            Subthreshold Leakage with power gating = 0.405179 W
            Gate Leakage = 0.157702 W
            Runtime Dynamic = 0.381207 W

          Complex ALUs (Mul/Div) (Count: 1 ):
            Area = 0.336336 mm^2
            Peak Dynamic = 0.0340069 W
            Subthreshold Leakage = 0.135959 W
            Subthreshold Leakage with power gating = 0.0560831 W
            Gate Leakage = 0.0218284 W
            Runtime Dynamic = 0.230788 W

          Results Broadcast Bus:
            Area Overhead = 0.119693 mm^2
            Peak Dynamic = 0.444634 W
            Subthreshold Leakage = 0.0792689 W
            Subthreshold Leakage with power gating = 0.0326984 W
            Gate Leakage = 0.0127267 W
            Runtime Dynamic = 1.19553 W

*****************************************************************************************
Core:
      Area = 53.3689 mm^2
      Peak Dynamic = 56.6439 W
      Subthreshold Leakage = 4.16126 W
      Subthreshold Leakage with power gating = 1.82826 W
      Gate Leakage = 0.711432 W
      Runtime Dynamic = 16.9192 W

      Instruction Fetch Unit:
        Area = 16.6791 mm^2
        Peak Dynamic = 15.083 W
        Subthreshold Leakage = 0.831766 W
        Subthreshold Leakage with power gating = 0.38846 W
        Gate Leakage = 0.155048 W
        Runtime Dynamic = 1.52136 W

          Instruction Cache:
            Area = 6.75661 mm^2
            Peak Dynamic = 10.7727 W
            Subthreshold Leakage = 0.297311 W
            Subthreshold Leakage with power gating = 0.150398 W
            Gate Leakage = 0.0613922 W
            Runtime Dynamic = 0.675101 W

          Branch Target Buffer:
            Area = 5.61054 mm^2
            Peak Dynamic = 1.24445 W
            Subthreshold Leakage = 0.206554 W
            Subthreshold Leakage with power gating = 0.100841 W
            Gate Leakage = 0.050165 W
            Runtime Dynamic = 0.12832 W

          Branch Predictor:
            Area = 0.290038 mm^2
            Peak Dynamic = 0.0860761 W
            Subthreshold Leakage = 0.0138691 W
            Subthreshold Leakage with power gating = 0.00759211 W
            Gate Leakage = 0.0013017 W
            Runtime Dynamic = 0.010642 W

              Global Predictor:
                Area = 0.0923009 mm^2
                Peak Dynamic = 0.0240659 W
                Subthreshold Leakage = 0.00527373 W
                Subthreshold Leakage with power gating = 0.00288394 W
                Gate Leakage = 0.000476013 W
                Runtime Dynamic = 0.00272036 W

              Local Predictor:
              L1_Local Predictor:
                Area = 0.0548037 mm^2
                Peak Dynamic = 0.0203863 W
                Subthreshold Leakage = 0.00267663 W
                Subthreshold Leakage with power gating = 0.00146319 W
                Gate Leakage = 0.000269239 W
                Runtime Dynamic = 0.00237964 W

              L2_Local Predictor:
                Area = 0.0280973 mm^2
                Peak Dynamic = 0.0103889 W
                Subthreshold Leakage = 0.00135709 W
                Subthreshold Leakage with power gating = 0.00073939 W
                Gate Leakage = 0.000141843 W
                Runtime Dynamic = 0.00121276 W

              Chooser:
                Area = 0.0923009 mm^2
                Peak Dynamic = 0.0240659 W
                Subthreshold Leakage = 0.00527373 W
                Subthreshold Leakage with power gating = 0.00288394 W
                Gate Leakage = 0.000476013 W
                Runtime Dynamic = 0.00272036 W

              RAS:
                Area = 0.022535 mm^2
                Peak Dynamic = 0.017558 W
                Subthreshold Leakage = 0.000645049 W
                Subthreshold Leakage with power gating = 0.000361038 W
                Gate Leakage = 8.04384e-05 W
                Runtime Dynamic = 0.00282165 W

          Instruction Buffer:
            Area = 0.0513995 mm^2
            Peak Dynamic = 0.946774 W
            Subthreshold Leakage = 0.00108634 W
            Subthreshold Leakage with power gating = 0.000538263 W
            Gate Leakage = 0.000121689 W
            Runtime Dynamic = 0.197232 W

          Instruction Decoder:
            Area = 3.87654 mm^2
            Peak Dynamic = 1.6323 W
            Subthreshold Leakage = 0.299448 W
            Subthreshold Leakage with power gating = 0.123523 W
            Gate Leakage = 0.0366139 W
            Runtime Dynamic = 0.510062 W

      Renaming Unit:
        Area = 0.773725 mm^2
        Peak Dynamic = 7.14742 W
        Subthreshold Leakage = 0.0529538 W
        Subthreshold Leakage with power gating = 0.0280629 W
        Gate Leakage = 0.0156786 W
        Runtime Dynamic = 0.50813 W

          Int Front End RAT:
            Area = 0.241418 mm^2
            Peak Dynamic = 1.25896 W
            Subthreshold Leakage = 0.00453825 W
            Subthreshold Leakage with power gating = 0.0025868 W
            Gate Leakage = 0.000695293 W
            Runtime Dynamic = 0.381755 W

          FP Front End RAT:
            Area = 0.351534 mm^2
            Peak Dynamic = 5.42872 W
            Subthreshold Leakage = 0.0344542 W
            Subthreshold Leakage with power gating = 0.0196389 W
            Gate Leakage = 0.00945921 W
            Runtime Dynamic = 0.0885181 W

          Free List:
            Area = 0.0867714 mm^2
            Peak Dynamic = 0.0590361 W
            Subthreshold Leakage = 0.000463845 W
            Subthreshold Leakage with power gating = 0.000269451 W
            Gate Leakage = 7.05318e-05 W
            Runtime Dynamic = 0.0378578 W

      Load Store Unit:
        Area = 10.888 mm^2
        Peak Dynamic = 7.07115 W
        Subthreshold Leakage = 0.310052 W
        Subthreshold Leakage with power gating = 0.167489 W
        Gate Leakage = 0.0478226 W
        Runtime Dynamic = 2.60298 W

          Data Cache:
            Area = 8.0728 mm^2
            Peak Dynamic = 6.34039 W
            Subthreshold Leakage = 0.262501 W
            Subthreshold Leakage with power gating = 0.142511 W
            Gate Leakage = 0.0349272 W
            Runtime Dynamic = 1.62986 W

          LoadQ:
            Area = 0.178621 mm^2
            Peak Dynamic = 0.161091 W
            Subthreshold Leakage = 0.00713781 W
            Subthreshold Leakage with power gating = 0.00406855 W
            Gate Leakage = 0.00110995 W
            Runtime Dynamic = 0.16109 W

          StoreQ:
            Area = 0.685501 mm^2
            Peak Dynamic = 0.406016 W
            Subthreshold Leakage = 0.0269154 W
            Subthreshold Leakage with power gating = 0.0153418 W
            Gate Leakage = 0.00633191 W
            Runtime Dynamic = 0.812031 W

      Memory Management Unit:
        Area = 0.922128 mm^2
        Peak Dynamic = 1.05355 W
        Subthreshold Leakage = 0.0569545 W
        Subthreshold Leakage with power gating = 0.0303382 W
        Gate Leakage = 0.0145682 W
        Runtime Dynamic = 0.220195 W

          Itlb:
            Area = 0.639014 mm^2
            Peak Dynamic = 0.643191 W
            Subthreshold Leakage = 0.0323609 W
            Subthreshold Leakage with power gating = 0.0184457 W
            Gate Leakage = 0.00756163 W
            Runtime Dynamic = 0.0909344 W

          Dtlb:
            Area = 0.189112 mm^2
            Peak Dynamic = 0.128182 W
            Subthreshold Leakage = 0.0110961 W
            Subthreshold Leakage with power gating = 0.00632475 W
            Gate Leakage = 0.00155302 W
            Runtime Dynamic = 0.129261 W

      Execution Unit:
        Area = 17.8249 mm^2
        Peak Dynamic = 26.2887 W
        Subthreshold Leakage = 1.64003 W
        Subthreshold Leakage with power gating = 0.690244 W
        Gate Leakage = 0.274494 W
        Runtime Dynamic = 12.0665 W

          Register Files:
            Area = 1.24273 mm^2
            Peak Dynamic = 0.24351 W
            Subthreshold Leakage = 0.00783917 W
            Subthreshold Leakage with power gating = 0.00348781 W
            Gate Leakage = 0.00118474 W
            Runtime Dynamic = 0.240854 W

              Integer RF:
                Area = 0.773151 mm^2
                Peak Dynamic = 0.218799 W
                Subthreshold Leakage = 0.00479902 W
                Subthreshold Leakage with power gating = 0.00207228 W
                Gate Leakage = 0.000746865 W
                Runtime Dynamic = 0.212666 W

              Floating Point RF:
                Area = 0.469582 mm^2
                Peak Dynamic = 0.0247108 W
                Subthreshold Leakage = 0.00304015 W
                Subthreshold Leakage with power gating = 0.00141553 W
                Gate Leakage = 0.000437878 W
                Runtime Dynamic = 0.028188 W

          Instruction Scheduler:
            Area = 5.63983 mm^2
            Peak Dynamic = 24.5471 W
            Subthreshold Leakage = 0.149298 W
            Subthreshold Leakage with power gating = 0.0750616 W
            Gate Leakage = 0.0319423 W
            Runtime Dynamic = 8.72872 W

              Instruction Window:
                Area = 2.15891 mm^2
                Peak Dynamic = 3.3662 W
                Subthreshold Leakage = 0.063785 W
                Subthreshold Leakage with power gating = 0.0363184 W
                Gate Leakage = 0.0102635 W
                Runtime Dynamic = 1.37728 W

              FP Instruction Window:
                Area = 0.694993 mm^2
                Peak Dynamic = 1.97613 W
                Subthreshold Leakage = 0.0135308 W
                Subthreshold Leakage with power gating = 0.00767348 W
                Gate Leakage = 0.002225 W
                Runtime Dynamic = 0.803273 W

              ROB:
                Area = 2.78593 mm^2
                Peak Dynamic = 19.2048 W
                Subthreshold Leakage = 0.0719825 W
                Subthreshold Leakage with power gating = 0.0310698 W
                Gate Leakage = 0.0194538 W
                Runtime Dynamic = 6.54817 W

          Integer ALUs (Count: 6 ):
            Area = 0.672672 mm^2
            Peak Dynamic = 0.671251 W
            Subthreshold Leakage = 0.271918 W
            Subthreshold Leakage with power gating = 0.112166 W
            Gate Leakage = 0.0436568 W
            Runtime Dynamic = 0.757624 W

          Floating Point Units (FPUs) (Count: 2 ):
            Area = 9.71959 mm^2
            Peak Dynamic = 0.114488 W
            Subthreshold Leakage = 0.982251 W
            Subthreshold Leakage with power gating = 0.405179 W
            Gate Leakage = 0.157702 W
            Runtime Dynamic = 0.355584 W

          Complex ALUs (Mul/Div) (Count: 1 ):
            Area = 0.336336 mm^2
            Peak Dynamic = 0.0228141 W
            Subthreshold Leakage = 0.135959 W
            Subthreshold Leakage with power gating = 0.0560831 W
            Gate Leakage = 0.0218284 W
            Runtime Dynamic = 0.221376 W

          Results Broadcast Bus:
            Area Overhead = 0.119693 mm^2
            Peak Dynamic = 0.608279 W
            Subthreshold Leakage = 0.0792689 W
            Subthreshold Leakage with power gating = 0.0326984 W
            Gate Leakage = 0.0127267 W
            Runtime Dynamic = 1.76239 W

*****************************************************************************************
Core:
      Area = 53.3689 mm^2
      Peak Dynamic = 56.7619 W
      Subthreshold Leakage = 4.16126 W
      Subthreshold Leakage with power gating = 1.82826 W
      Gate Leakage = 0.711432 W
      Runtime Dynamic = 18.1051 W

      Instruction Fetch Unit:
        Area = 16.6791 mm^2
        Peak Dynamic = 15.083 W
        Subthreshold Leakage = 0.831766 W
        Subthreshold Leakage with power gating = 0.38846 W
        Gate Leakage = 0.155048 W
        Runtime Dynamic = 1.7994 W

          Instruction Cache:
            Area = 6.75661 mm^2
            Peak Dynamic = 10.7727 W
            Subthreshold Leakage = 0.297311 W
            Subthreshold Leakage with power gating = 0.150398 W
            Gate Leakage = 0.0613922 W
            Runtime Dynamic = 0.774481 W

          Branch Target Buffer:
            Area = 5.61054 mm^2
            Peak Dynamic = 1.24445 W
            Subthreshold Leakage = 0.206554 W
            Subthreshold Leakage with power gating = 0.100841 W
            Gate Leakage = 0.050165 W
            Runtime Dynamic = 0.243596 W

          Branch Predictor:
            Area = 0.290038 mm^2
            Peak Dynamic = 0.0860761 W
            Subthreshold Leakage = 0.0138691 W
            Subthreshold Leakage with power gating = 0.00759211 W
            Gate Leakage = 0.0013017 W
            Runtime Dynamic = 0.0177519 W

              Global Predictor:
                Area = 0.0923009 mm^2
                Peak Dynamic = 0.0240659 W
                Subthreshold Leakage = 0.00527373 W
                Subthreshold Leakage with power gating = 0.00288394 W
                Gate Leakage = 0.000476013 W
                Runtime Dynamic = 0.00511991 W

              Local Predictor:
              L1_Local Predictor:
                Area = 0.0548037 mm^2
                Peak Dynamic = 0.0203863 W
                Subthreshold Leakage = 0.00267663 W
                Subthreshold Leakage with power gating = 0.00146319 W
                Gate Leakage = 0.000269239 W
                Runtime Dynamic = 0.00446593 W

              L2_Local Predictor:
                Area = 0.0280973 mm^2
                Peak Dynamic = 0.0103889 W
                Subthreshold Leakage = 0.00135709 W
                Subthreshold Leakage with power gating = 0.00073939 W
                Gate Leakage = 0.000141843 W
                Runtime Dynamic = 0.00227601 W

              Chooser:
                Area = 0.0923009 mm^2
                Peak Dynamic = 0.0240659 W
                Subthreshold Leakage = 0.00527373 W
                Subthreshold Leakage with power gating = 0.00288394 W
                Gate Leakage = 0.000476013 W
                Runtime Dynamic = 0.00511991 W

              RAS:
                Area = 0.022535 mm^2
                Peak Dynamic = 0.017558 W
                Subthreshold Leakage = 0.000645049 W
                Subthreshold Leakage with power gating = 0.000361038 W
                Gate Leakage = 8.04384e-05 W
                Runtime Dynamic = 0.00304616 W

          Instruction Buffer:
            Area = 0.0513995 mm^2
            Peak Dynamic = 0.946774 W
            Subthreshold Leakage = 0.00108634 W
            Subthreshold Leakage with power gating = 0.000538263 W
            Gate Leakage = 0.000121689 W
            Runtime Dynamic = 0.212926 W

          Instruction Decoder:
            Area = 3.87654 mm^2
            Peak Dynamic = 1.6323 W
            Subthreshold Leakage = 0.299448 W
            Subthreshold Leakage with power gating = 0.123523 W
            Gate Leakage = 0.0366139 W
            Runtime Dynamic = 0.550647 W

      Renaming Unit:
        Area = 0.773725 mm^2
        Peak Dynamic = 7.14742 W
        Subthreshold Leakage = 0.0529538 W
        Subthreshold Leakage with power gating = 0.0280629 W
        Gate Leakage = 0.0156786 W
        Runtime Dynamic = 0.641013 W

          Int Front End RAT:
            Area = 0.241418 mm^2
            Peak Dynamic = 1.25896 W
            Subthreshold Leakage = 0.00453825 W
            Subthreshold Leakage with power gating = 0.0025868 W
            Gate Leakage = 0.000695293 W
            Runtime Dynamic = 0.401668 W

          FP Front End RAT:
            Area = 0.351534 mm^2
            Peak Dynamic = 5.42872 W
            Subthreshold Leakage = 0.0344542 W
            Subthreshold Leakage with power gating = 0.0196389 W
            Gate Leakage = 0.00945921 W
            Runtime Dynamic = 0.197368 W

          Free List:
            Area = 0.0867714 mm^2
            Peak Dynamic = 0.0590361 W
            Subthreshold Leakage = 0.000463845 W
            Subthreshold Leakage with power gating = 0.000269451 W
            Gate Leakage = 7.05318e-05 W
            Runtime Dynamic = 0.0419772 W

      Load Store Unit:
        Area = 10.888 mm^2
        Peak Dynamic = 6.84086 W
        Subthreshold Leakage = 0.310052 W
        Subthreshold Leakage with power gating = 0.167489 W
        Gate Leakage = 0.0478226 W
        Runtime Dynamic = 2.47688 W

          Data Cache:
            Area = 8.0728 mm^2
            Peak Dynamic = 6.14358 W
            Subthreshold Leakage = 0.262501 W
            Subthreshold Leakage with power gating = 0.142511 W
            Gate Leakage = 0.0349272 W
            Runtime Dynamic = 1.54835 W

          LoadQ:
            Area = 0.178621 mm^2
            Peak Dynamic = 0.153709 W
            Subthreshold Leakage = 0.00713781 W
            Subthreshold Leakage with power gating = 0.00406855 W
            Gate Leakage = 0.00110995 W
            Runtime Dynamic = 0.153709 W

          StoreQ:
            Area = 0.685501 mm^2
            Peak Dynamic = 0.387411 W
            Subthreshold Leakage = 0.0269154 W
            Subthreshold Leakage with power gating = 0.0153418 W
            Gate Leakage = 0.00633191 W
            Runtime Dynamic = 0.774823 W

      Memory Management Unit:
        Area = 0.922128 mm^2
        Peak Dynamic = 1.04393 W
        Subthreshold Leakage = 0.0569545 W
        Subthreshold Leakage with power gating = 0.0303382 W
        Gate Leakage = 0.0145682 W
        Runtime Dynamic = 0.241709 W

          Itlb:
            Area = 0.639014 mm^2
            Peak Dynamic = 0.643191 W
            Subthreshold Leakage = 0.0323609 W
            Subthreshold Leakage with power gating = 0.0184457 W
            Gate Leakage = 0.00756163 W
            Runtime Dynamic = 0.118876 W

          Dtlb:
            Area = 0.189112 mm^2
            Peak Dynamic = 0.122309 W
            Subthreshold Leakage = 0.0110961 W
            Subthreshold Leakage with power gating = 0.00632475 W
            Gate Leakage = 0.00155302 W
            Runtime Dynamic = 0.122833 W

      Execution Unit:
        Area = 17.8249 mm^2
        Peak Dynamic = 26.6467 W
        Subthreshold Leakage = 1.64003 W
        Subthreshold Leakage with power gating = 0.690244 W
        Gate Leakage = 0.274494 W
        Runtime Dynamic = 12.9461 W

          Register Files:
            Area = 1.24273 mm^2
            Peak Dynamic = 0.303811 W
            Subthreshold Leakage = 0.00783917 W
            Subthreshold Leakage with power gating = 0.00348781 W
            Gate Leakage = 0.00118474 W
            Runtime Dynamic = 0.260019 W

              Integer RF:
                Area = 0.773151 mm^2
                Peak Dynamic = 0.248713 W
                Subthreshold Leakage = 0.00479902 W
                Subthreshold Leakage with power gating = 0.00207228 W
                Gate Leakage = 0.000746865 W
                Runtime Dynamic = 0.229588 W

              Floating Point RF:
                Area = 0.469582 mm^2
                Peak Dynamic = 0.0550978 W
                Subthreshold Leakage = 0.00304015 W
                Subthreshold Leakage with power gating = 0.00141553 W
                Gate Leakage = 0.000437878 W
                Runtime Dynamic = 0.0304309 W

          Instruction Scheduler:
            Area = 5.63983 mm^2
            Peak Dynamic = 24.5471 W
            Subthreshold Leakage = 0.149298 W
            Subthreshold Leakage with power gating = 0.0750616 W
            Gate Leakage = 0.0319423 W
            Runtime Dynamic = 9.44045 W

              Instruction Window:
                Area = 2.15891 mm^2
                Peak Dynamic = 3.3662 W
                Subthreshold Leakage = 0.063785 W
                Subthreshold Leakage with power gating = 0.0363184 W
                Gate Leakage = 0.0102635 W
                Runtime Dynamic = 1.48686 W

              FP Instruction Window:
                Area = 0.694993 mm^2
                Peak Dynamic = 1.97613 W
                Subthreshold Leakage = 0.0135308 W
                Subthreshold Leakage with power gating = 0.00767348 W
                Gate Leakage = 0.002225 W
                Runtime Dynamic = 0.867189 W

              ROB:
                Area = 2.78593 mm^2
                Peak Dynamic = 19.2048 W
                Subthreshold Leakage = 0.0719825 W
                Subthreshold Leakage with power gating = 0.0310698 W
                Gate Leakage = 0.0194538 W
                Runtime Dynamic = 7.08639 W

          Integer ALUs (Count: 6 ):
            Area = 0.672672 mm^2
            Peak Dynamic = 0.703978 W
            Subthreshold Leakage = 0.271918 W
            Subthreshold Leakage with power gating = 0.112166 W
            Gate Leakage = 0.0436568 W
            Runtime Dynamic = 0.746595 W

          Floating Point Units (FPUs) (Count: 2 ):
            Area = 9.71959 mm^2
            Peak Dynamic = 0.255275 W
            Subthreshold Leakage = 0.982251 W
            Subthreshold Leakage with power gating = 0.405179 W
            Gate Leakage = 0.157702 W
            Runtime Dynamic = 0.419896 W

          Complex ALUs (Mul/Div) (Count: 1 ):
            Area = 0.336336 mm^2
            Peak Dynamic = 0.0508902 W
            Subthreshold Leakage = 0.135959 W
            Subthreshold Leakage with power gating = 0.0560831 W
            Gate Leakage = 0.0218284 W
            Runtime Dynamic = 0.244986 W

          Results Broadcast Bus:
            Area Overhead = 0.119693 mm^2
            Peak Dynamic = 0.700428 W
            Subthreshold Leakage = 0.0792689 W
            Subthreshold Leakage with power gating = 0.0326984 W
            Gate Leakage = 0.0127267 W
            Runtime Dynamic = 1.8342 W

*****************************************************************************************
Core:
      Area = 53.3689 mm^2
      Peak Dynamic = 57.1363 W
      Subthreshold Leakage = 4.16126 W
      Subthreshold Leakage with power gating = 1.82826 W
      Gate Leakage = 0.711432 W
      Runtime Dynamic = 18.9084 W

      Instruction Fetch Unit:
        Area = 16.6791 mm^2
        Peak Dynamic = 15.083 W
        Subthreshold Leakage = 0.831766 W
        Subthreshold Leakage with power gating = 0.38846 W
        Gate Leakage = 0.155048 W
        Runtime Dynamic = 1.73973 W

          Instruction Cache:
            Area = 6.75661 mm^2
            Peak Dynamic = 10.7727 W
            Subthreshold Leakage = 0.297311 W
            Subthreshold Leakage with power gating = 0.150398 W
            Gate Leakage = 0.0613922 W
            Runtime Dynamic = 0.751283 W

          Branch Target Buffer:
            Area = 5.61054 mm^2
            Peak Dynamic = 1.24445 W
            Subthreshold Leakage = 0.206554 W
            Subthreshold Leakage with power gating = 0.100841 W
            Gate Leakage = 0.050165 W
            Runtime Dynamic = 0.180241 W

          Branch Predictor:
            Area = 0.290038 mm^2
            Peak Dynamic = 0.0860761 W
            Subthreshold Leakage = 0.0138691 W
            Subthreshold Leakage with power gating = 0.00759211 W
            Gate Leakage = 0.0013017 W
            Runtime Dynamic = 0.0139248 W

              Global Predictor:
                Area = 0.0923009 mm^2
                Peak Dynamic = 0.0240659 W
                Subthreshold Leakage = 0.00527373 W
                Subthreshold Leakage with power gating = 0.00288394 W
                Gate Leakage = 0.000476013 W
                Runtime Dynamic = 0.0037488 W

              Local Predictor:
              L1_Local Predictor:
                Area = 0.0548037 mm^2
                Peak Dynamic = 0.0203863 W
                Subthreshold Leakage = 0.00267663 W
                Subthreshold Leakage with power gating = 0.00146319 W
                Gate Leakage = 0.000269239 W
                Runtime Dynamic = 0.0032585 W

              L2_Local Predictor:
                Area = 0.0280973 mm^2
                Peak Dynamic = 0.0103889 W
                Subthreshold Leakage = 0.00135709 W
                Subthreshold Leakage with power gating = 0.00073939 W
                Gate Leakage = 0.000141843 W
                Runtime Dynamic = 0.00166064 W

              Chooser:
                Area = 0.0923009 mm^2
                Peak Dynamic = 0.0240659 W
                Subthreshold Leakage = 0.00527373 W
                Subthreshold Leakage with power gating = 0.00288394 W
                Gate Leakage = 0.000476013 W
                Runtime Dynamic = 0.0037488 W

              RAS:
                Area = 0.022535 mm^2
                Peak Dynamic = 0.017558 W
                Subthreshold Leakage = 0.000645049 W
                Subthreshold Leakage with power gating = 0.000361038 W
                Gate Leakage = 8.04384e-05 W
                Runtime Dynamic = 0.00316869 W

          Instruction Buffer:
            Area = 0.0513995 mm^2
            Peak Dynamic = 0.946774 W
            Subthreshold Leakage = 0.00108634 W
            Subthreshold Leakage with power gating = 0.000538263 W
            Gate Leakage = 0.000121689 W
            Runtime Dynamic = 0.22149 W

          Instruction Decoder:
            Area = 3.87654 mm^2
            Peak Dynamic = 1.6323 W
            Subthreshold Leakage = 0.299448 W
            Subthreshold Leakage with power gating = 0.123523 W
            Gate Leakage = 0.0366139 W
            Runtime Dynamic = 0.572796 W

      Renaming Unit:
        Area = 0.773725 mm^2
        Peak Dynamic = 7.14742 W
        Subthreshold Leakage = 0.0529538 W
        Subthreshold Leakage with power gating = 0.0280629 W
        Gate Leakage = 0.0156786 W
        Runtime Dynamic = 0.70995 W

          Int Front End RAT:
            Area = 0.241418 mm^2
            Peak Dynamic = 1.25896 W
            Subthreshold Leakage = 0.00453825 W
            Subthreshold Leakage with power gating = 0.0025868 W
            Gate Leakage = 0.000695293 W
            Runtime Dynamic = 0.421638 W

          FP Front End RAT:
            Area = 0.351534 mm^2
            Peak Dynamic = 5.42872 W
            Subthreshold Leakage = 0.0344542 W
            Subthreshold Leakage with power gating = 0.0196389 W
            Gate Leakage = 0.00945921 W
            Runtime Dynamic = 0.244223 W

          Free List:
            Area = 0.0867714 mm^2
            Peak Dynamic = 0.0590361 W
            Subthreshold Leakage = 0.000463845 W
            Subthreshold Leakage with power gating = 0.000269451 W
            Gate Leakage = 7.05318e-05 W
            Runtime Dynamic = 0.0440889 W

      Load Store Unit:
        Area = 10.888 mm^2
        Peak Dynamic = 7.03765 W
        Subthreshold Leakage = 0.310052 W
        Subthreshold Leakage with power gating = 0.167489 W
        Gate Leakage = 0.0478226 W
        Runtime Dynamic = 2.59492 W

          Data Cache:
            Area = 8.0728 mm^2
            Peak Dynamic = 6.31175 W
            Subthreshold Leakage = 0.262501 W
            Subthreshold Leakage with power gating = 0.142511 W
            Gate Leakage = 0.0349272 W
            Runtime Dynamic = 1.62829 W

          LoadQ:
            Area = 0.178621 mm^2
            Peak Dynamic = 0.160017 W
            Subthreshold Leakage = 0.00713781 W
            Subthreshold Leakage with power gating = 0.00406855 W
            Gate Leakage = 0.00110995 W
            Runtime Dynamic = 0.160016 W

          StoreQ:
            Area = 0.685501 mm^2
            Peak Dynamic = 0.403309 W
            Subthreshold Leakage = 0.0269154 W
            Subthreshold Leakage with power gating = 0.0153418 W
            Gate Leakage = 0.00633191 W
            Runtime Dynamic = 0.806617 W

      Memory Management Unit:
        Area = 0.922128 mm^2
        Peak Dynamic = 1.05215 W
        Subthreshold Leakage = 0.0569545 W
        Subthreshold Leakage with power gating = 0.0303382 W
        Gate Leakage = 0.0145682 W
        Runtime Dynamic = 0.237901 W

          Itlb:
            Area = 0.639014 mm^2
            Peak Dynamic = 0.643191 W
            Subthreshold Leakage = 0.0323609 W
            Subthreshold Leakage with power gating = 0.0184457 W
            Gate Leakage = 0.00756163 W
            Runtime Dynamic = 0.109547 W

          Dtlb:
            Area = 0.189112 mm^2
            Peak Dynamic = 0.127328 W
            Subthreshold Leakage = 0.0110961 W
            Subthreshold Leakage with power gating = 0.00632475 W
            Gate Leakage = 0.00155302 W
            Runtime Dynamic = 0.128354 W

      Execution Unit:
        Area = 17.8249 mm^2
        Peak Dynamic = 26.8161 W
        Subthreshold Leakage = 1.64003 W
        Subthreshold Leakage with power gating = 0.690244 W
        Gate Leakage = 0.274494 W
        Runtime Dynamic = 13.6259 W

          Register Files:
            Area = 1.24273 mm^2
            Peak Dynamic = 0.331855 W
            Subthreshold Leakage = 0.00783917 W
            Subthreshold Leakage with power gating = 0.00348781 W
            Gate Leakage = 0.00118474 W
            Runtime Dynamic = 0.270478 W

              Integer RF:
                Area = 0.773151 mm^2
                Peak Dynamic = 0.263678 W
                Subthreshold Leakage = 0.00479902 W
                Subthreshold Leakage with power gating = 0.00207228 W
                Gate Leakage = 0.000746865 W
                Runtime Dynamic = 0.238823 W

              Floating Point RF:
                Area = 0.469582 mm^2
                Peak Dynamic = 0.0681779 W
                Subthreshold Leakage = 0.00304015 W
                Subthreshold Leakage with power gating = 0.00141553 W
                Gate Leakage = 0.000437878 W
                Runtime Dynamic = 0.031655 W

          Instruction Scheduler:
            Area = 5.63983 mm^2
            Peak Dynamic = 24.5471 W
            Subthreshold Leakage = 0.149298 W
            Subthreshold Leakage with power gating = 0.0750616 W
            Gate Leakage = 0.0319423 W
            Runtime Dynamic = 9.84246 W

              Instruction Window:
                Area = 2.15891 mm^2
                Peak Dynamic = 3.3662 W
                Subthreshold Leakage = 0.063785 W
                Subthreshold Leakage with power gating = 0.0363184 W
                Gate Leakage = 0.0102635 W
                Runtime Dynamic = 1.54667 W

              FP Instruction Window:
                Area = 0.694993 mm^2
                Peak Dynamic = 1.97613 W
                Subthreshold Leakage = 0.0135308 W
                Subthreshold Leakage with power gating = 0.00767348 W
                Gate Leakage = 0.002225 W
                Runtime Dynamic = 0.90207 W

              ROB:
                Area = 2.78593 mm^2
                Peak Dynamic = 19.2048 W
                Subthreshold Leakage = 0.0719825 W
                Subthreshold Leakage with power gating = 0.0310698 W
                Gate Leakage = 0.0194538 W
                Runtime Dynamic = 7.39372 W

          Integer ALUs (Count: 6 ):
            Area = 0.672672 mm^2
            Peak Dynamic = 0.724389 W
            Subthreshold Leakage = 0.271918 W
            Subthreshold Leakage with power gating = 0.112166 W
            Gate Leakage = 0.0436568 W
            Runtime Dynamic = 0.7988 W

          Floating Point Units (FPUs) (Count: 2 ):
            Area = 9.71959 mm^2
            Peak Dynamic = 0.315877 W
            Subthreshold Leakage = 0.982251 W
            Subthreshold Leakage with power gating = 0.405179 W
            Gate Leakage = 0.157702 W
            Runtime Dynamic = 0.447579 W

          Complex ALUs (Mul/Div) (Count: 1 ):
            Area = 0.336336 mm^2
            Peak Dynamic = 0.0632285 W
            Subthreshold Leakage = 0.135959 W
            Subthreshold Leakage with power gating = 0.0560831 W
            Gate Leakage = 0.0218284 W
            Runtime Dynamic = 0.255363 W

          Results Broadcast Bus:
            Area Overhead = 0.119693 mm^2
            Peak Dynamic = 0.745911 W
            Subthreshold Leakage = 0.0792689 W
            Subthreshold Leakage with power gating = 0.0326984 W
            Gate Leakage = 0.0127267 W
            Runtime Dynamic = 2.01124 W

*****************************************************************************************
L2
      Area = 42.2475 mm^2
      Peak Dynamic = 0.500877 W
      Subthreshold Leakage = 1.0962 W
      Subthreshold Leakage with power gating = 0.498137 W
      Gate Leakage = 0.0907798 W
      Runtime Dynamic = 0.235933 W

*****************************************************************************************
BUSES
      Area = 2.24393 mm^2
      Peak Dynamic = 0 W
      Subthreshold Leakage = 0.0436402 W
      Subthreshold Leakage with power gating = 0.0180016 W
      Gate Leakage = 0.0103493 W
      Runtime Dynamic = 0 W

      Bus: 
        Area = 2.24393 mm^2
        Peak Dynamic = 0 W
        Subthreshold Leakage = 0.0436402 W
        Subthreshold Leakage with power gating = 0.0180016 W
        Gate Leakage = 0.0103493 W
        Runtime Dynamic = 0 W

*****************************************************************************************
